data_input14\(4)
_audit_creation_date              2023-12-03
_audit_creation_method            'Materials Studio'
_symmetry_space_group_name_H-M    'P1'
_symmetry_Int_Tables_number       1
_symmetry_cell_setting            triclinic
loop_
_symmetry_equiv_pos_as_xyz
  x,y,z
_cell_length_a                    30.3555
_cell_length_b                    30.3555
_cell_length_c                    36.5234
_cell_angle_alpha                 90.0000
_cell_angle_beta                  90.0000
_cell_angle_gamma                 120.0000
loop_
_atom_site_label
_atom_site_type_symbol
_atom_site_fract_x
_atom_site_fract_y
_atom_site_fract_z
_atom_site_U_iso_or_equiv
_atom_site_adp_type
_atom_site_occupancy
Zn1    Zn    0.05556   0.11111   0.05655   0.00000  Uiso   1.00
Cu1    Cu    0.05556   0.02778   0.05655   0.00000  Uiso   1.00
Cu2    Cu    0.13889   0.02778   0.05655   0.00000  Uiso   1.00
Cu3    Cu    0.13889   0.11111   0.05655   0.00000  Uiso   1.00
Zn2    Zn    0.22222   0.11111   0.05655   0.00000  Uiso   1.00
Cu4    Cu    0.22222   0.02778   0.05655   0.00000  Uiso   1.00
Cu5    Cu    0.30556   0.02778   0.05655   0.00000  Uiso   1.00
Cu6    Cu    0.30556   0.11111   0.05655   0.00000  Uiso   1.00
Zn3    Zn    0.38889   0.11111   0.05655   0.00000  Uiso   1.00
Cu7    Cu    0.38889   0.02778   0.05655   0.00000  Uiso   1.00
Cu8    Cu    0.47222   0.02778   0.05655   0.00000  Uiso   1.00
Cu9    Cu    0.47222   0.11111   0.05655   0.00000  Uiso   1.00
Zn4    Zn    0.55556   0.11111   0.05655   0.00000  Uiso   1.00
Cu10   Cu    0.55556   0.02778   0.05655   0.00000  Uiso   1.00
Cu11   Cu    0.63889   0.02778   0.05655   0.00000  Uiso   1.00
Cu12   Cu    0.63889   0.11111   0.05655   0.00000  Uiso   1.00
Zn5    Zn    0.72222   0.11111   0.05655   0.00000  Uiso   1.00
Cu13   Cu    0.72222   0.02778   0.05655   0.00000  Uiso   1.00
Cu14   Cu    0.80556   0.02778   0.05655   0.00000  Uiso   1.00
Cu15   Cu    0.80556   0.11111   0.05655   0.00000  Uiso   1.00
Zn6    Zn    0.88889   0.11111   0.05655   0.00000  Uiso   1.00
Cu16   Cu    0.88889   0.02778   0.05655   0.00000  Uiso   1.00
Cu17   Cu    0.97222   0.02778   0.05655   0.00000  Uiso   1.00
Cu18   Cu    0.97222   0.11111   0.05655   0.00000  Uiso   1.00
Zn7    Zn    0.05556   0.27778   0.05655   0.00000  Uiso   1.00
Cu19   Cu    0.05556   0.19444   0.05655   0.00000  Uiso   1.00
Cu20   Cu    0.13889   0.19444   0.05655   0.00000  Uiso   1.00
Cu21   Cu    0.13889   0.27778   0.05655   0.00000  Uiso   1.00
Zn8    Zn    0.22222   0.27778   0.05655   0.00000  Uiso   1.00
Cu22   Cu    0.22222   0.19444   0.05655   0.00000  Uiso   1.00
Cu23   Cu    0.30556   0.19444   0.05655   0.00000  Uiso   1.00
Cu24   Cu    0.30556   0.27778   0.05655   0.00000  Uiso   1.00
Zn9    Zn    0.38889   0.27778   0.05655   0.00000  Uiso   1.00
Cu25   Cu    0.38889   0.19444   0.05655   0.00000  Uiso   1.00
Cu26   Cu    0.47222   0.19444   0.05655   0.00000  Uiso   1.00
Cu27   Cu    0.47222   0.27778   0.05655   0.00000  Uiso   1.00
Zn10   Zn    0.55556   0.27778   0.05655   0.00000  Uiso   1.00
Cu28   Cu    0.55556   0.19444   0.05655   0.00000  Uiso   1.00
Cu29   Cu    0.63889   0.19444   0.05655   0.00000  Uiso   1.00
Cu30   Cu    0.63889   0.27778   0.05655   0.00000  Uiso   1.00
Zn11   Zn    0.72222   0.27778   0.05655   0.00000  Uiso   1.00
Cu31   Cu    0.72222   0.19444   0.05655   0.00000  Uiso   1.00
Cu32   Cu    0.80556   0.19444   0.05655   0.00000  Uiso   1.00
Cu33   Cu    0.80556   0.27778   0.05655   0.00000  Uiso   1.00
Zn12   Zn    0.88889   0.27778   0.05655   0.00000  Uiso   1.00
Cu34   Cu    0.88889   0.19444   0.05655   0.00000  Uiso   1.00
Cu35   Cu    0.97222   0.19444   0.05655   0.00000  Uiso   1.00
Cu36   Cu    0.97222   0.27778   0.05655   0.00000  Uiso   1.00
Zn13   Zn    0.05556   0.44444   0.05655   0.00000  Uiso   1.00
Cu37   Cu    0.05556   0.36111   0.05655   0.00000  Uiso   1.00
Cu38   Cu    0.13889   0.36111   0.05655   0.00000  Uiso   1.00
Cu39   Cu    0.13889   0.44444   0.05655   0.00000  Uiso   1.00
Zn14   Zn    0.22222   0.44444   0.05655   0.00000  Uiso   1.00
Cu40   Cu    0.22222   0.36111   0.05655   0.00000  Uiso   1.00
Cu41   Cu    0.30556   0.36111   0.05655   0.00000  Uiso   1.00
Cu42   Cu    0.30556   0.44444   0.05655   0.00000  Uiso   1.00
Zn15   Zn    0.38889   0.44444   0.05655   0.00000  Uiso   1.00
Cu43   Cu    0.38889   0.36111   0.05655   0.00000  Uiso   1.00
Cu44   Cu    0.47222   0.36111   0.05655   0.00000  Uiso   1.00
Cu45   Cu    0.47222   0.44444   0.05655   0.00000  Uiso   1.00
Zn16   Zn    0.55556   0.44444   0.05655   0.00000  Uiso   1.00
Cu46   Cu    0.55556   0.36111   0.05655   0.00000  Uiso   1.00
Cu47   Cu    0.63889   0.36111   0.05655   0.00000  Uiso   1.00
Cu48   Cu    0.63889   0.44444   0.05655   0.00000  Uiso   1.00
Zn17   Zn    0.72222   0.44444   0.05655   0.00000  Uiso   1.00
Cu49   Cu    0.72222   0.36111   0.05655   0.00000  Uiso   1.00
Cu50   Cu    0.80556   0.36111   0.05655   0.00000  Uiso   1.00
Cu51   Cu    0.80556   0.44444   0.05655   0.00000  Uiso   1.00
Zn18   Zn    0.88889   0.44444   0.05655   0.00000  Uiso   1.00
Cu52   Cu    0.88889   0.36111   0.05655   0.00000  Uiso   1.00
Cu53   Cu    0.97222   0.36111   0.05655   0.00000  Uiso   1.00
Cu54   Cu    0.97222   0.44444   0.05655   0.00000  Uiso   1.00
Zn19   Zn    0.05556   0.61111   0.05655   0.00000  Uiso   1.00
Cu55   Cu    0.05556   0.52778   0.05655   0.00000  Uiso   1.00
Cu56   Cu    0.13889   0.52778   0.05655   0.00000  Uiso   1.00
Cu57   Cu    0.13889   0.61111   0.05655   0.00000  Uiso   1.00
Zn20   Zn    0.22222   0.61111   0.05655   0.00000  Uiso   1.00
Cu58   Cu    0.22222   0.52778   0.05655   0.00000  Uiso   1.00
Cu59   Cu    0.30556   0.52778   0.05655   0.00000  Uiso   1.00
Cu60   Cu    0.30556   0.61111   0.05655   0.00000  Uiso   1.00
Zn21   Zn    0.38889   0.61111   0.05655   0.00000  Uiso   1.00
Cu61   Cu    0.38889   0.52778   0.05655   0.00000  Uiso   1.00
Cu62   Cu    0.47222   0.52778   0.05655   0.00000  Uiso   1.00
Cu63   Cu    0.47222   0.61111   0.05655   0.00000  Uiso   1.00
Zn22   Zn    0.55556   0.61111   0.05655   0.00000  Uiso   1.00
Cu64   Cu    0.55556   0.52778   0.05655   0.00000  Uiso   1.00
Cu65   Cu    0.63889   0.52778   0.05655   0.00000  Uiso   1.00
Cu66   Cu    0.63889   0.61111   0.05655   0.00000  Uiso   1.00
Zn23   Zn    0.72222   0.61111   0.05655   0.00000  Uiso   1.00
Cu67   Cu    0.72222   0.52778   0.05655   0.00000  Uiso   1.00
Cu68   Cu    0.80556   0.52778   0.05655   0.00000  Uiso   1.00
Cu69   Cu    0.80556   0.61111   0.05655   0.00000  Uiso   1.00
Zn24   Zn    0.88889   0.61111   0.05655   0.00000  Uiso   1.00
Cu70   Cu    0.88889   0.52778   0.05655   0.00000  Uiso   1.00
Cu71   Cu    0.97222   0.52778   0.05655   0.00000  Uiso   1.00
Cu72   Cu    0.97222   0.61111   0.05655   0.00000  Uiso   1.00
Zn25   Zn    0.05556   0.77778   0.05655   0.00000  Uiso   1.00
Cu73   Cu    0.05556   0.69444   0.05655   0.00000  Uiso   1.00
Cu74   Cu    0.13889   0.69444   0.05655   0.00000  Uiso   1.00
Cu75   Cu    0.13889   0.77778   0.05655   0.00000  Uiso   1.00
Zn26   Zn    0.22222   0.77778   0.05655   0.00000  Uiso   1.00
Cu76   Cu    0.22222   0.69444   0.05655   0.00000  Uiso   1.00
Cu77   Cu    0.30556   0.69444   0.05655   0.00000  Uiso   1.00
Cu78   Cu    0.30556   0.77778   0.05655   0.00000  Uiso   1.00
Zn27   Zn    0.38889   0.77778   0.05655   0.00000  Uiso   1.00
Cu79   Cu    0.38889   0.69444   0.05655   0.00000  Uiso   1.00
Cu80   Cu    0.47222   0.69444   0.05655   0.00000  Uiso   1.00
Cu81   Cu    0.47222   0.77778   0.05655   0.00000  Uiso   1.00
Zn28   Zn    0.55556   0.77778   0.05655   0.00000  Uiso   1.00
Cu82   Cu    0.55556   0.69444   0.05655   0.00000  Uiso   1.00
Cu83   Cu    0.63889   0.69444   0.05655   0.00000  Uiso   1.00
Cu84   Cu    0.63889   0.77778   0.05655   0.00000  Uiso   1.00
Zn29   Zn    0.72222   0.77778   0.05655   0.00000  Uiso   1.00
Cu85   Cu    0.72222   0.69444   0.05655   0.00000  Uiso   1.00
Cu86   Cu    0.80556   0.69444   0.05655   0.00000  Uiso   1.00
Cu87   Cu    0.80556   0.77778   0.05655   0.00000  Uiso   1.00
Zn30   Zn    0.88889   0.77778   0.05655   0.00000  Uiso   1.00
Cu88   Cu    0.88889   0.69444   0.05655   0.00000  Uiso   1.00
Cu89   Cu    0.97222   0.69444   0.05655   0.00000  Uiso   1.00
Cu90   Cu    0.97222   0.77778   0.05655   0.00000  Uiso   1.00
Zn31   Zn    0.05556   0.94444   0.05655   0.00000  Uiso   1.00
Cu91   Cu    0.05556   0.86111   0.05655   0.00000  Uiso   1.00
Cu92   Cu    0.13889   0.86111   0.05655   0.00000  Uiso   1.00
Cu93   Cu    0.13889   0.94444   0.05655   0.00000  Uiso   1.00
Zn32   Zn    0.22222   0.94444   0.05655   0.00000  Uiso   1.00
Cu94   Cu    0.22222   0.86111   0.05655   0.00000  Uiso   1.00
Cu95   Cu    0.30556   0.86111   0.05655   0.00000  Uiso   1.00
Cu96   Cu    0.30556   0.94444   0.05655   0.00000  Uiso   1.00
Zn33   Zn    0.38889   0.94444   0.05655   0.00000  Uiso   1.00
Cu97   Cu    0.38889   0.86111   0.05655   0.00000  Uiso   1.00
Cu98   Cu    0.47222   0.86111   0.05655   0.00000  Uiso   1.00
Cu99   Cu    0.47222   0.94444   0.05655   0.00000  Uiso   1.00
Zn34   Zn    0.55556   0.94444   0.05655   0.00000  Uiso   1.00
Cu100  Cu    0.55556   0.86111   0.05655   0.00000  Uiso   1.00
Cu101  Cu    0.63889   0.86111   0.05655   0.00000  Uiso   1.00
Cu102  Cu    0.63889   0.94444   0.05655   0.00000  Uiso   1.00
Zn35   Zn    0.72222   0.94444   0.05655   0.00000  Uiso   1.00
Cu103  Cu    0.72222   0.86111   0.05655   0.00000  Uiso   1.00
Cu104  Cu    0.80556   0.86111   0.05655   0.00000  Uiso   1.00
Cu105  Cu    0.80556   0.94444   0.05655   0.00000  Uiso   1.00
Zn36   Zn    0.88889   0.94444   0.05655   0.00000  Uiso   1.00
Cu106  Cu    0.88889   0.86111   0.05655   0.00000  Uiso   1.00
Cu107  Cu    0.97222   0.86111   0.05655   0.00000  Uiso   1.00
Cu108  Cu    0.97222   0.94444   0.05655   0.00000  Uiso   1.00
Zn37   Zn    0.00000   0.00000   0.11310   0.00000  Uiso   1.00
Cu109  Cu    0.00000   0.08333   0.11310   0.00000  Uiso   1.00
Cu110  Cu    0.08333   0.08333   0.11310   0.00000  Uiso   1.00
Cu111  Cu    0.08333   0.00000   0.11310   0.00000  Uiso   1.00
Zn38   Zn    0.16667   0.00000   0.11310   0.00000  Uiso   1.00
Cu112  Cu    0.16667   0.08333   0.11310   0.00000  Uiso   1.00
Cu113  Cu    0.25000   0.08333   0.11310   0.00000  Uiso   1.00
Cu114  Cu    0.25000   0.00000   0.11310   0.00000  Uiso   1.00
Zn39   Zn    0.33333   0.00000   0.11310   0.00000  Uiso   1.00
Cu115  Cu    0.33333   0.08333   0.11310   0.00000  Uiso   1.00
Cu116  Cu    0.41667   0.08333   0.11310   0.00000  Uiso   1.00
Cu117  Cu    0.41667   0.00000   0.11310   0.00000  Uiso   1.00
Zn40   Zn    0.50000   0.00000   0.11310   0.00000  Uiso   1.00
Cu118  Cu    0.50000   0.08333   0.11310   0.00000  Uiso   1.00
Cu119  Cu    0.58333   0.08333   0.11310   0.00000  Uiso   1.00
Cu120  Cu    0.58333   0.00000   0.11310   0.00000  Uiso   1.00
Zn41   Zn    0.66667   0.00000   0.11310   0.00000  Uiso   1.00
Cu121  Cu    0.66667   0.08333   0.11310   0.00000  Uiso   1.00
Cu122  Cu    0.75000   0.08333   0.11310   0.00000  Uiso   1.00
Cu123  Cu    0.75000   0.00000   0.11310   0.00000  Uiso   1.00
Zn42   Zn    0.83333   0.00000   0.11310   0.00000  Uiso   1.00
Cu124  Cu    0.83333   0.08333   0.11310   0.00000  Uiso   1.00
Cu125  Cu    0.91667   0.08333   0.11310   0.00000  Uiso   1.00
Cu126  Cu    0.91667   0.00000   0.11310   0.00000  Uiso   1.00
Zn43   Zn    0.00000   0.16667   0.11310   0.00000  Uiso   1.00
Cu127  Cu    0.00000   0.25000   0.11310   0.00000  Uiso   1.00
Cu128  Cu    0.08333   0.25000   0.11310   0.00000  Uiso   1.00
Cu129  Cu    0.08333   0.16667   0.11310   0.00000  Uiso   1.00
Zn44   Zn    0.16667   0.16667   0.11310   0.00000  Uiso   1.00
Cu130  Cu    0.16667   0.25000   0.11310   0.00000  Uiso   1.00
Cu131  Cu    0.25000   0.25000   0.11310   0.00000  Uiso   1.00
Cu132  Cu    0.25000   0.16667   0.11310   0.00000  Uiso   1.00
Zn45   Zn    0.33333   0.16667   0.11310   0.00000  Uiso   1.00
Cu133  Cu    0.33333   0.25000   0.11310   0.00000  Uiso   1.00
Cu134  Cu    0.41667   0.25000   0.11310   0.00000  Uiso   1.00
Cu135  Cu    0.41667   0.16667   0.11310   0.00000  Uiso   1.00
Zn46   Zn    0.50000   0.16667   0.11310   0.00000  Uiso   1.00
Cu136  Cu    0.50000   0.25000   0.11310   0.00000  Uiso   1.00
Cu137  Cu    0.58333   0.25000   0.11310   0.00000  Uiso   1.00
Cu138  Cu    0.58333   0.16667   0.11310   0.00000  Uiso   1.00
Zn47   Zn    0.66667   0.16667   0.11310   0.00000  Uiso   1.00
Cu139  Cu    0.66667   0.25000   0.11310   0.00000  Uiso   1.00
Cu140  Cu    0.75000   0.25000   0.11310   0.00000  Uiso   1.00
Cu141  Cu    0.75000   0.16667   0.11310   0.00000  Uiso   1.00
Zn48   Zn    0.83333   0.16667   0.11310   0.00000  Uiso   1.00
Cu142  Cu    0.83333   0.25000   0.11310   0.00000  Uiso   1.00
Cu143  Cu    0.91667   0.25000   0.11310   0.00000  Uiso   1.00
Cu144  Cu    0.91667   0.16667   0.11310   0.00000  Uiso   1.00
Zn49   Zn    0.00000   0.33333   0.11310   0.00000  Uiso   1.00
Cu145  Cu    0.00000   0.41667   0.11310   0.00000  Uiso   1.00
Cu146  Cu    0.08333   0.41667   0.11310   0.00000  Uiso   1.00
Cu147  Cu    0.08333   0.33333   0.11310   0.00000  Uiso   1.00
Zn50   Zn    0.16667   0.33333   0.11310   0.00000  Uiso   1.00
Cu148  Cu    0.16667   0.41667   0.11310   0.00000  Uiso   1.00
Cu149  Cu    0.25000   0.41667   0.11310   0.00000  Uiso   1.00
Cu150  Cu    0.25000   0.33333   0.11310   0.00000  Uiso   1.00
Zn51   Zn    0.33333   0.33333   0.11310   0.00000  Uiso   1.00
Cu151  Cu    0.33333   0.41667   0.11310   0.00000  Uiso   1.00
Cu152  Cu    0.41667   0.41667   0.11310   0.00000  Uiso   1.00
Cu153  Cu    0.41667   0.33333   0.11310   0.00000  Uiso   1.00
Zn52   Zn    0.50000   0.33333   0.11310   0.00000  Uiso   1.00
Cu154  Cu    0.50000   0.41667   0.11310   0.00000  Uiso   1.00
Cu155  Cu    0.58333   0.41667   0.11310   0.00000  Uiso   1.00
Cu156  Cu    0.58333   0.33333   0.11310   0.00000  Uiso   1.00
Zn53   Zn    0.66667   0.33333   0.11310   0.00000  Uiso   1.00
Cu157  Cu    0.66667   0.41667   0.11310   0.00000  Uiso   1.00
Cu158  Cu    0.75000   0.41667   0.11310   0.00000  Uiso   1.00
Cu159  Cu    0.75000   0.33333   0.11310   0.00000  Uiso   1.00
Zn54   Zn    0.83333   0.33333   0.11310   0.00000  Uiso   1.00
Cu160  Cu    0.83333   0.41667   0.11310   0.00000  Uiso   1.00
Cu161  Cu    0.91667   0.41667   0.11310   0.00000  Uiso   1.00
Cu162  Cu    0.91667   0.33333   0.11310   0.00000  Uiso   1.00
Zn55   Zn    0.00000   0.50000   0.11310   0.00000  Uiso   1.00
Cu163  Cu    0.00000   0.58333   0.11310   0.00000  Uiso   1.00
Cu164  Cu    0.08333   0.58333   0.11310   0.00000  Uiso   1.00
Cu165  Cu    0.08333   0.50000   0.11310   0.00000  Uiso   1.00
Zn56   Zn    0.16667   0.50000   0.11310   0.00000  Uiso   1.00
Cu166  Cu    0.16667   0.58333   0.11310   0.00000  Uiso   1.00
Cu167  Cu    0.25000   0.58333   0.11310   0.00000  Uiso   1.00
Cu168  Cu    0.25000   0.50000   0.11310   0.00000  Uiso   1.00
Zn57   Zn    0.33333   0.50000   0.11310   0.00000  Uiso   1.00
Cu169  Cu    0.33333   0.58333   0.11310   0.00000  Uiso   1.00
Cu170  Cu    0.41667   0.58333   0.11310   0.00000  Uiso   1.00
Cu171  Cu    0.41667   0.50000   0.11310   0.00000  Uiso   1.00
Zn58   Zn    0.50000   0.50000   0.11310   0.00000  Uiso   1.00
Cu172  Cu    0.50000   0.58333   0.11310   0.00000  Uiso   1.00
Cu173  Cu    0.58333   0.58333   0.11310   0.00000  Uiso   1.00
Cu174  Cu    0.58333   0.50000   0.11310   0.00000  Uiso   1.00
Zn59   Zn    0.66667   0.50000   0.11310   0.00000  Uiso   1.00
Cu175  Cu    0.66667   0.58333   0.11310   0.00000  Uiso   1.00
Cu176  Cu    0.75000   0.58333   0.11310   0.00000  Uiso   1.00
Cu177  Cu    0.75000   0.50000   0.11310   0.00000  Uiso   1.00
Zn60   Zn    0.83333   0.50000   0.11310   0.00000  Uiso   1.00
Cu178  Cu    0.83333   0.58333   0.11310   0.00000  Uiso   1.00
Cu179  Cu    0.91667   0.58333   0.11310   0.00000  Uiso   1.00
Cu180  Cu    0.91667   0.50000   0.11310   0.00000  Uiso   1.00
Zn61   Zn    0.00000   0.66667   0.11310   0.00000  Uiso   1.00
Cu181  Cu    0.00000   0.75000   0.11310   0.00000  Uiso   1.00
Cu182  Cu    0.08333   0.75000   0.11310   0.00000  Uiso   1.00
Cu183  Cu    0.08333   0.66667   0.11310   0.00000  Uiso   1.00
Zn62   Zn    0.16667   0.66667   0.11310   0.00000  Uiso   1.00
Cu184  Cu    0.16667   0.75000   0.11310   0.00000  Uiso   1.00
Cu185  Cu    0.25000   0.75000   0.11310   0.00000  Uiso   1.00
Cu186  Cu    0.25000   0.66667   0.11310   0.00000  Uiso   1.00
Zn63   Zn    0.33333   0.66667   0.11310   0.00000  Uiso   1.00
Cu187  Cu    0.33333   0.75000   0.11310   0.00000  Uiso   1.00
Cu188  Cu    0.41667   0.75000   0.11310   0.00000  Uiso   1.00
Cu189  Cu    0.41667   0.66667   0.11310   0.00000  Uiso   1.00
Zn64   Zn    0.50000   0.66667   0.11310   0.00000  Uiso   1.00
Cu190  Cu    0.50000   0.75000   0.11310   0.00000  Uiso   1.00
Cu191  Cu    0.58333   0.75000   0.11310   0.00000  Uiso   1.00
Cu192  Cu    0.58333   0.66667   0.11310   0.00000  Uiso   1.00
Zn65   Zn    0.66667   0.66667   0.11310   0.00000  Uiso   1.00
Cu193  Cu    0.66667   0.75000   0.11310   0.00000  Uiso   1.00
Cu194  Cu    0.75000   0.75000   0.11310   0.00000  Uiso   1.00
Cu195  Cu    0.75000   0.66667   0.11310   0.00000  Uiso   1.00
Zn66   Zn    0.83333   0.66667   0.11310   0.00000  Uiso   1.00
Cu196  Cu    0.83333   0.75000   0.11310   0.00000  Uiso   1.00
Cu197  Cu    0.91667   0.75000   0.11310   0.00000  Uiso   1.00
Cu198  Cu    0.91667   0.66667   0.11310   0.00000  Uiso   1.00
Zn67   Zn    0.99999   0.83333   0.11310   0.00000  Uiso   1.00
Cu199  Cu    0.99999   0.91667   0.11310   0.00000  Uiso   1.00
Cu200  Cu    0.08333   0.91667   0.11310   0.00000  Uiso   1.00
Cu201  Cu    0.08333   0.83333   0.11310   0.00000  Uiso   1.00
Zn68   Zn    0.16667   0.83333   0.11310   0.00000  Uiso   1.00
Cu202  Cu    0.16667   0.91667   0.11310   0.00000  Uiso   1.00
Cu203  Cu    0.25000   0.91667   0.11310   0.00000  Uiso   1.00
Cu204  Cu    0.25000   0.83333   0.11310   0.00000  Uiso   1.00
Zn69   Zn    0.33333   0.83333   0.11310   0.00000  Uiso   1.00
Cu205  Cu    0.33333   0.91667   0.11310   0.00000  Uiso   1.00
Cu206  Cu    0.41667   0.91667   0.11310   0.00000  Uiso   1.00
Cu207  Cu    0.41667   0.83333   0.11310   0.00000  Uiso   1.00
Zn70   Zn    0.50000   0.83333   0.11310   0.00000  Uiso   1.00
Cu208  Cu    0.50000   0.91667   0.11310   0.00000  Uiso   1.00
Cu209  Cu    0.58333   0.91667   0.11310   0.00000  Uiso   1.00
Cu210  Cu    0.58333   0.83333   0.11310   0.00000  Uiso   1.00
Zn71   Zn    0.66667   0.83333   0.11310   0.00000  Uiso   1.00
Cu211  Cu    0.66667   0.91667   0.11310   0.00000  Uiso   1.00
Cu212  Cu    0.75000   0.91667   0.11310   0.00000  Uiso   1.00
Cu213  Cu    0.75000   0.83333   0.11310   0.00000  Uiso   1.00
Zn72   Zn    0.83333   0.83333   0.11310   0.00000  Uiso   1.00
Cu214  Cu    0.83333   0.91667   0.11310   0.00000  Uiso   1.00
Cu215  Cu    0.91667   0.91667   0.11310   0.00000  Uiso   1.00
Cu216  Cu    0.91667   0.83333   0.11310   0.00000  Uiso   1.00
Zn73   Zn    0.11111   0.05556   0.16965   0.00000  Uiso   1.00
Cu217  Cu    0.11111   0.13889   0.16965   0.00000  Uiso   1.00
Cu218  Cu    0.02778   0.13889   0.16965   0.00000  Uiso   1.00
Cu219  Cu    0.02778   0.05556   0.16965   0.00000  Uiso   1.00
Zn74   Zn    0.27778   0.05556   0.16965   0.00000  Uiso   1.00
Cu220  Cu    0.27778   0.13889   0.16965   0.00000  Uiso   1.00
Cu221  Cu    0.19444   0.13889   0.16965   0.00000  Uiso   1.00
Cu222  Cu    0.19444   0.05556   0.16965   0.00000  Uiso   1.00
Zn75   Zn    0.44444   0.05556   0.16965   0.00000  Uiso   1.00
Cu223  Cu    0.44444   0.13889   0.16965   0.00000  Uiso   1.00
Cu224  Cu    0.36111   0.13889   0.16965   0.00000  Uiso   1.00
Cu225  Cu    0.36111   0.05556   0.16965   0.00000  Uiso   1.00
Zn76   Zn    0.61111   0.05556   0.16965   0.00000  Uiso   1.00
Cu226  Cu    0.61111   0.13889   0.16965   0.00000  Uiso   1.00
Cu227  Cu    0.52778   0.13889   0.16965   0.00000  Uiso   1.00
Cu228  Cu    0.52778   0.05556   0.16965   0.00000  Uiso   1.00
Zn77   Zn    0.77778   0.05556   0.16965   0.00000  Uiso   1.00
Cu229  Cu    0.77778   0.13889   0.16965   0.00000  Uiso   1.00
Cu230  Cu    0.69444   0.13889   0.16965   0.00000  Uiso   1.00
Cu231  Cu    0.69444   0.05556   0.16965   0.00000  Uiso   1.00
Zn78   Zn    0.94444   0.05556   0.16965   0.00000  Uiso   1.00
Cu232  Cu    0.94444   0.13889   0.16965   0.00000  Uiso   1.00
Cu233  Cu    0.86111   0.13889   0.16965   0.00000  Uiso   1.00
Cu234  Cu    0.86111   0.05556   0.16965   0.00000  Uiso   1.00
Zn79   Zn    0.11111   0.22222   0.16965   0.00000  Uiso   1.00
Cu235  Cu    0.11111   0.30556   0.16965   0.00000  Uiso   1.00
Cu236  Cu    0.02778   0.30556   0.16965   0.00000  Uiso   1.00
Cu237  Cu    0.02778   0.22222   0.16965   0.00000  Uiso   1.00
Zn80   Zn    0.27778   0.22222   0.16965   0.00000  Uiso   1.00
Cu238  Cu    0.27778   0.30556   0.16965   0.00000  Uiso   1.00
Cu239  Cu    0.19444   0.30556   0.16965   0.00000  Uiso   1.00
Cu240  Cu    0.19444   0.22222   0.16965   0.00000  Uiso   1.00
Zn81   Zn    0.44444   0.22222   0.16965   0.00000  Uiso   1.00
Cu241  Cu    0.44444   0.30556   0.16965   0.00000  Uiso   1.00
Cu242  Cu    0.36111   0.30556   0.16965   0.00000  Uiso   1.00
Cu243  Cu    0.36111   0.22222   0.16965   0.00000  Uiso   1.00
Zn82   Zn    0.61111   0.22222   0.16965   0.00000  Uiso   1.00
Cu244  Cu    0.61111   0.30556   0.16965   0.00000  Uiso   1.00
Cu245  Cu    0.52778   0.30556   0.16965   0.00000  Uiso   1.00
Cu246  Cu    0.52778   0.22222   0.16965   0.00000  Uiso   1.00
Zn83   Zn    0.77778   0.22222   0.16965   0.00000  Uiso   1.00
Cu247  Cu    0.77778   0.30556   0.16965   0.00000  Uiso   1.00
Cu248  Cu    0.69444   0.30556   0.16965   0.00000  Uiso   1.00
Cu249  Cu    0.69444   0.22222   0.16965   0.00000  Uiso   1.00
Zn84   Zn    0.94444   0.22222   0.16965   0.00000  Uiso   1.00
Cu250  Cu    0.94444   0.30556   0.16965   0.00000  Uiso   1.00
Cu251  Cu    0.86111   0.30556   0.16965   0.00000  Uiso   1.00
Cu252  Cu    0.86111   0.22222   0.16965   0.00000  Uiso   1.00
Zn85   Zn    0.11111   0.38889   0.16965   0.00000  Uiso   1.00
Cu253  Cu    0.11111   0.47222   0.16965   0.00000  Uiso   1.00
Cu254  Cu    0.02778   0.47222   0.16965   0.00000  Uiso   1.00
Cu255  Cu    0.02778   0.38889   0.16965   0.00000  Uiso   1.00
Zn86   Zn    0.27778   0.38889   0.16965   0.00000  Uiso   1.00
Cu256  Cu    0.27778   0.47222   0.16965   0.00000  Uiso   1.00
Cu257  Cu    0.19444   0.47222   0.16965   0.00000  Uiso   1.00
Cu258  Cu    0.19444   0.38889   0.16965   0.00000  Uiso   1.00
Zn87   Zn    0.44444   0.38889   0.16965   0.00000  Uiso   1.00
Cu259  Cu    0.44444   0.47222   0.16965   0.00000  Uiso   1.00
Cu260  Cu    0.36111   0.47222   0.16965   0.00000  Uiso   1.00
Cu261  Cu    0.36111   0.38889   0.16965   0.00000  Uiso   1.00
Zn88   Zn    0.61111   0.38889   0.16965   0.00000  Uiso   1.00
Cu262  Cu    0.61111   0.47222   0.16965   0.00000  Uiso   1.00
Cu263  Cu    0.52778   0.47222   0.16965   0.00000  Uiso   1.00
Cu264  Cu    0.52778   0.38889   0.16965   0.00000  Uiso   1.00
Zn89   Zn    0.77778   0.38889   0.16965   0.00000  Uiso   1.00
Cu265  Cu    0.77778   0.47222   0.16965   0.00000  Uiso   1.00
Cu266  Cu    0.69444   0.47222   0.16965   0.00000  Uiso   1.00
Cu267  Cu    0.69444   0.38889   0.16965   0.00000  Uiso   1.00
Zn90   Zn    0.94444   0.38889   0.16965   0.00000  Uiso   1.00
Cu268  Cu    0.94444   0.47222   0.16965   0.00000  Uiso   1.00
Cu269  Cu    0.86111   0.47222   0.16965   0.00000  Uiso   1.00
Cu270  Cu    0.86111   0.38889   0.16965   0.00000  Uiso   1.00
Zn91   Zn    0.11111   0.55556   0.16965   0.00000  Uiso   1.00
Cu271  Cu    0.11111   0.63889   0.16965   0.00000  Uiso   1.00
Cu272  Cu    0.02778   0.63889   0.16965   0.00000  Uiso   1.00
Cu273  Cu    0.02778   0.55556   0.16965   0.00000  Uiso   1.00
Zn92   Zn    0.27778   0.55556   0.16965   0.00000  Uiso   1.00
Cu274  Cu    0.27778   0.63889   0.16965   0.00000  Uiso   1.00
Cu275  Cu    0.19444   0.63889   0.16965   0.00000  Uiso   1.00
Cu276  Cu    0.19444   0.55556   0.16965   0.00000  Uiso   1.00
Zn93   Zn    0.44444   0.55556   0.16965   0.00000  Uiso   1.00
Cu277  Cu    0.44444   0.63889   0.16965   0.00000  Uiso   1.00
Cu278  Cu    0.36111   0.63889   0.16965   0.00000  Uiso   1.00
Cu279  Cu    0.36111   0.55556   0.16965   0.00000  Uiso   1.00
Zn94   Zn    0.61111   0.55556   0.16965   0.00000  Uiso   1.00
Cu280  Cu    0.61111   0.63889   0.16965   0.00000  Uiso   1.00
Cu281  Cu    0.52778   0.63889   0.16965   0.00000  Uiso   1.00
Cu282  Cu    0.52778   0.55556   0.16965   0.00000  Uiso   1.00
Zn95   Zn    0.77778   0.55556   0.16965   0.00000  Uiso   1.00
Cu283  Cu    0.77778   0.63889   0.16965   0.00000  Uiso   1.00
Cu284  Cu    0.69444   0.63889   0.16965   0.00000  Uiso   1.00
Cu285  Cu    0.69444   0.55556   0.16965   0.00000  Uiso   1.00
Zn96   Zn    0.94444   0.55556   0.16965   0.00000  Uiso   1.00
Cu286  Cu    0.94444   0.63889   0.16965   0.00000  Uiso   1.00
Cu287  Cu    0.86111   0.63889   0.16965   0.00000  Uiso   1.00
Cu288  Cu    0.86111   0.55556   0.16965   0.00000  Uiso   1.00
Zn97   Zn    0.11111   0.72222   0.16965   0.00000  Uiso   1.00
Cu289  Cu    0.11111   0.80556   0.16965   0.00000  Uiso   1.00
Cu290  Cu    0.02778   0.80556   0.16965   0.00000  Uiso   1.00
Cu291  Cu    0.02778   0.72222   0.16965   0.00000  Uiso   1.00
Zn98   Zn    0.27778   0.72222   0.16965   0.00000  Uiso   1.00
Cu292  Cu    0.27778   0.80556   0.16965   0.00000  Uiso   1.00
Cu293  Cu    0.19444   0.80556   0.16965   0.00000  Uiso   1.00
Cu294  Cu    0.19444   0.72222   0.16965   0.00000  Uiso   1.00
Zn99   Zn    0.44444   0.72222   0.16965   0.00000  Uiso   1.00
Cu295  Cu    0.44444   0.80556   0.16965   0.00000  Uiso   1.00
Cu296  Cu    0.36111   0.80556   0.16965   0.00000  Uiso   1.00
Cu297  Cu    0.36111   0.72222   0.16965   0.00000  Uiso   1.00
Zn100  Zn    0.61111   0.72222   0.16965   0.00000  Uiso   1.00
Cu298  Cu    0.61111   0.80556   0.16965   0.00000  Uiso   1.00
Cu299  Cu    0.52778   0.80556   0.16965   0.00000  Uiso   1.00
Cu300  Cu    0.52778   0.72222   0.16965   0.00000  Uiso   1.00
Zn101  Zn    0.77778   0.72222   0.16965   0.00000  Uiso   1.00
Cu301  Cu    0.77778   0.80556   0.16965   0.00000  Uiso   1.00
Cu302  Cu    0.69444   0.80556   0.16965   0.00000  Uiso   1.00
Cu303  Cu    0.69444   0.72222   0.16965   0.00000  Uiso   1.00
Zn102  Zn    0.94444   0.72222   0.16965   0.00000  Uiso   1.00
Cu304  Cu    0.94444   0.80556   0.16965   0.00000  Uiso   1.00
Cu305  Cu    0.86111   0.80556   0.16965   0.00000  Uiso   1.00
Cu306  Cu    0.86111   0.72222   0.16965   0.00000  Uiso   1.00
Zn103  Zn    0.11111   0.88889   0.16965   0.00000  Uiso   1.00
Cu307  Cu    0.11111   0.97222   0.16965   0.00000  Uiso   1.00
Cu308  Cu    0.02778   0.97222   0.16965   0.00000  Uiso   1.00
Cu309  Cu    0.02778   0.88889   0.16965   0.00000  Uiso   1.00
Zn104  Zn    0.27778   0.88889   0.16965   0.00000  Uiso   1.00
Cu310  Cu    0.27778   0.97222   0.16965   0.00000  Uiso   1.00
Cu311  Cu    0.19444   0.97222   0.16965   0.00000  Uiso   1.00
Cu312  Cu    0.19444   0.88889   0.16965   0.00000  Uiso   1.00
Zn105  Zn    0.44444   0.88889   0.16965   0.00000  Uiso   1.00
Cu313  Cu    0.44444   0.97222   0.16965   0.00000  Uiso   1.00
Cu314  Cu    0.36111   0.97222   0.16965   0.00000  Uiso   1.00
Cu315  Cu    0.36111   0.88889   0.16965   0.00000  Uiso   1.00
Zn106  Zn    0.61111   0.88889   0.16965   0.00000  Uiso   1.00
Cu316  Cu    0.61111   0.97222   0.16965   0.00000  Uiso   1.00
Cu317  Cu    0.52778   0.97222   0.16965   0.00000  Uiso   1.00
Cu318  Cu    0.52778   0.88889   0.16965   0.00000  Uiso   1.00
Zn107  Zn    0.77778   0.88889   0.16965   0.00000  Uiso   1.00
Cu319  Cu    0.77778   0.97222   0.16965   0.00000  Uiso   1.00
Cu320  Cu    0.69444   0.97222   0.16965   0.00000  Uiso   1.00
Cu321  Cu    0.69444   0.88889   0.16965   0.00000  Uiso   1.00
Zn108  Zn    0.94444   0.88889   0.16965   0.00000  Uiso   1.00
Cu322  Cu    0.94444   0.97222   0.16965   0.00000  Uiso   1.00
Cu323  Cu    0.86111   0.97222   0.16965   0.00000  Uiso   1.00
Cu324  Cu    0.86111   0.88889   0.16965   0.00000  Uiso   1.00
Zn109  Zn    0.05556   0.11111   0.22620   0.00000  Uiso   1.00
Cu325  Cu    0.05556   0.02778   0.22620   0.00000  Uiso   1.00
Cu326  Cu    0.13889   0.02778   0.22620   0.00000  Uiso   1.00
Cu327  Cu    0.13889   0.11111   0.22620   0.00000  Uiso   1.00
Zn110  Zn    0.22222   0.11111   0.22620   0.00000  Uiso   1.00
Cu328  Cu    0.22222   0.02778   0.22620   0.00000  Uiso   1.00
Cu329  Cu    0.30556   0.02778   0.22620   0.00000  Uiso   1.00
Cu330  Cu    0.30556   0.11111   0.22620   0.00000  Uiso   1.00
Zn111  Zn    0.38889   0.11111   0.22620   0.00000  Uiso   1.00
Cu331  Cu    0.38889   0.02778   0.22620   0.00000  Uiso   1.00
Cu332  Cu    0.47222   0.02778   0.22620   0.00000  Uiso   1.00
Cu333  Cu    0.47222   0.11111   0.22620   0.00000  Uiso   1.00
Zn112  Zn    0.55556   0.11111   0.22620   0.00000  Uiso   1.00
Cu334  Cu    0.55556   0.02778   0.22620   0.00000  Uiso   1.00
Cu335  Cu    0.63889   0.02778   0.22620   0.00000  Uiso   1.00
Cu336  Cu    0.63889   0.11111   0.22620   0.00000  Uiso   1.00
Zn113  Zn    0.72222   0.11111   0.22620   0.00000  Uiso   1.00
Cu337  Cu    0.72222   0.02778   0.22620   0.00000  Uiso   1.00
Cu338  Cu    0.80556   0.02778   0.22620   0.00000  Uiso   1.00
Cu339  Cu    0.80556   0.11111   0.22620   0.00000  Uiso   1.00
Zn114  Zn    0.88889   0.11111   0.22620   0.00000  Uiso   1.00
Cu340  Cu    0.88889   0.02778   0.22620   0.00000  Uiso   1.00
Cu341  Cu    0.97222   0.02778   0.22620   0.00000  Uiso   1.00
Cu342  Cu    0.97222   0.11111   0.22620   0.00000  Uiso   1.00
Zn115  Zn    0.05556   0.27778   0.22620   0.00000  Uiso   1.00
Cu343  Cu    0.05556   0.19444   0.22620   0.00000  Uiso   1.00
Cu344  Cu    0.13889   0.19444   0.22620   0.00000  Uiso   1.00
Cu345  Cu    0.13889   0.27778   0.22620   0.00000  Uiso   1.00
Zn116  Zn    0.22222   0.27778   0.22620   0.00000  Uiso   1.00
Cu346  Cu    0.22222   0.19444   0.22620   0.00000  Uiso   1.00
Cu347  Cu    0.30556   0.19444   0.22620   0.00000  Uiso   1.00
Cu348  Cu    0.30556   0.27778   0.22620   0.00000  Uiso   1.00
Zn117  Zn    0.38889   0.27778   0.22620   0.00000  Uiso   1.00
Cu349  Cu    0.38889   0.19444   0.22620   0.00000  Uiso   1.00
Cu350  Cu    0.47222   0.19444   0.22620   0.00000  Uiso   1.00
Cu351  Cu    0.47222   0.27778   0.22620   0.00000  Uiso   1.00
Zn118  Zn    0.55556   0.27778   0.22620   0.00000  Uiso   1.00
Cu352  Cu    0.55556   0.19444   0.22620   0.00000  Uiso   1.00
Cu353  Cu    0.63889   0.19444   0.22620   0.00000  Uiso   1.00
Cu354  Cu    0.63889   0.27778   0.22620   0.00000  Uiso   1.00
Zn119  Zn    0.72222   0.27778   0.22620   0.00000  Uiso   1.00
Cu355  Cu    0.72222   0.19444   0.22620   0.00000  Uiso   1.00
Cu356  Cu    0.80556   0.19444   0.22620   0.00000  Uiso   1.00
Cu357  Cu    0.80556   0.27778   0.22620   0.00000  Uiso   1.00
Zn120  Zn    0.88889   0.27778   0.22620   0.00000  Uiso   1.00
Cu358  Cu    0.88889   0.19444   0.22620   0.00000  Uiso   1.00
Cu359  Cu    0.97222   0.19444   0.22620   0.00000  Uiso   1.00
Cu360  Cu    0.97222   0.27778   0.22620   0.00000  Uiso   1.00
Zn121  Zn    0.05556   0.44444   0.22620   0.00000  Uiso   1.00
Cu361  Cu    0.05556   0.36111   0.22620   0.00000  Uiso   1.00
Cu362  Cu    0.13889   0.36111   0.22620   0.00000  Uiso   1.00
Cu363  Cu    0.13889   0.44444   0.22620   0.00000  Uiso   1.00
Zn122  Zn    0.22222   0.44444   0.22620   0.00000  Uiso   1.00
Cu364  Cu    0.22222   0.36111   0.22620   0.00000  Uiso   1.00
Cu365  Cu    0.30556   0.36111   0.22620   0.00000  Uiso   1.00
Cu366  Cu    0.30556   0.44444   0.22620   0.00000  Uiso   1.00
Zn123  Zn    0.38889   0.44444   0.22620   0.00000  Uiso   1.00
Cu367  Cu    0.38889   0.36111   0.22620   0.00000  Uiso   1.00
Cu368  Cu    0.47222   0.36111   0.22620   0.00000  Uiso   1.00
Cu369  Cu    0.47222   0.44444   0.22620   0.00000  Uiso   1.00
Zn124  Zn    0.55556   0.44444   0.22620   0.00000  Uiso   1.00
Cu370  Cu    0.55556   0.36111   0.22620   0.00000  Uiso   1.00
Cu371  Cu    0.63889   0.36111   0.22620   0.00000  Uiso   1.00
Cu372  Cu    0.63889   0.44444   0.22620   0.00000  Uiso   1.00
Zn125  Zn    0.72222   0.44444   0.22620   0.00000  Uiso   1.00
Cu373  Cu    0.72222   0.36111   0.22620   0.00000  Uiso   1.00
Cu374  Cu    0.80556   0.36111   0.22620   0.00000  Uiso   1.00
Cu375  Cu    0.80556   0.44444   0.22620   0.00000  Uiso   1.00
Zn126  Zn    0.88889   0.44444   0.22620   0.00000  Uiso   1.00
Cu376  Cu    0.88889   0.36111   0.22620   0.00000  Uiso   1.00
Cu377  Cu    0.97222   0.36111   0.22620   0.00000  Uiso   1.00
Cu378  Cu    0.97222   0.44444   0.22620   0.00000  Uiso   1.00
Zn127  Zn    0.05556   0.61111   0.22620   0.00000  Uiso   1.00
Cu379  Cu    0.05556   0.52778   0.22620   0.00000  Uiso   1.00
Cu380  Cu    0.13889   0.52778   0.22620   0.00000  Uiso   1.00
Cu381  Cu    0.13889   0.61111   0.22620   0.00000  Uiso   1.00
Zn128  Zn    0.22222   0.61111   0.22620   0.00000  Uiso   1.00
Cu382  Cu    0.22222   0.52778   0.22620   0.00000  Uiso   1.00
Cu383  Cu    0.30556   0.52778   0.22620   0.00000  Uiso   1.00
Cu384  Cu    0.30556   0.61111   0.22620   0.00000  Uiso   1.00
Zn129  Zn    0.38889   0.61111   0.22620   0.00000  Uiso   1.00
Cu385  Cu    0.38889   0.52778   0.22620   0.00000  Uiso   1.00
Cu386  Cu    0.47222   0.52778   0.22620   0.00000  Uiso   1.00
Cu387  Cu    0.47222   0.61111   0.22620   0.00000  Uiso   1.00
Zn130  Zn    0.55556   0.61111   0.22620   0.00000  Uiso   1.00
Cu388  Cu    0.55556   0.52778   0.22620   0.00000  Uiso   1.00
Cu389  Cu    0.63889   0.52778   0.22620   0.00000  Uiso   1.00
Cu390  Cu    0.63889   0.61111   0.22620   0.00000  Uiso   1.00
Zn131  Zn    0.72222   0.61111   0.22620   0.00000  Uiso   1.00
Cu391  Cu    0.72222   0.52778   0.22620   0.00000  Uiso   1.00
Cu392  Cu    0.80556   0.52778   0.22620   0.00000  Uiso   1.00
Cu393  Cu    0.80556   0.61111   0.22620   0.00000  Uiso   1.00
Zn132  Zn    0.88889   0.61111   0.22620   0.00000  Uiso   1.00
Cu394  Cu    0.88889   0.52778   0.22620   0.00000  Uiso   1.00
Cu395  Cu    0.97222   0.52778   0.22620   0.00000  Uiso   1.00
Cu396  Cu    0.97222   0.61111   0.22620   0.00000  Uiso   1.00
Zn133  Zn    0.05556   0.77778   0.22620   0.00000  Uiso   1.00
Cu397  Cu    0.05556   0.69444   0.22620   0.00000  Uiso   1.00
Cu398  Cu    0.13889   0.69444   0.22620   0.00000  Uiso   1.00
Cu399  Cu    0.13889   0.77778   0.22620   0.00000  Uiso   1.00
Zn134  Zn    0.22222   0.77778   0.22620   0.00000  Uiso   1.00
Cu400  Cu    0.22222   0.69444   0.22620   0.00000  Uiso   1.00
Cu401  Cu    0.30556   0.69444   0.22620   0.00000  Uiso   1.00
Cu402  Cu    0.30556   0.77778   0.22620   0.00000  Uiso   1.00
Zn135  Zn    0.38889   0.77778   0.22620   0.00000  Uiso   1.00
Cu403  Cu    0.38889   0.69444   0.22620   0.00000  Uiso   1.00
Cu404  Cu    0.47222   0.69444   0.22620   0.00000  Uiso   1.00
Cu405  Cu    0.47222   0.77778   0.22620   0.00000  Uiso   1.00
Zn136  Zn    0.55556   0.77778   0.22620   0.00000  Uiso   1.00
Cu406  Cu    0.55556   0.69444   0.22620   0.00000  Uiso   1.00
Cu407  Cu    0.63889   0.69444   0.22620   0.00000  Uiso   1.00
Cu408  Cu    0.63889   0.77778   0.22620   0.00000  Uiso   1.00
Zn137  Zn    0.72222   0.77778   0.22620   0.00000  Uiso   1.00
Cu409  Cu    0.72222   0.69444   0.22620   0.00000  Uiso   1.00
Cu410  Cu    0.80556   0.69444   0.22620   0.00000  Uiso   1.00
Cu411  Cu    0.80556   0.77778   0.22620   0.00000  Uiso   1.00
Zn138  Zn    0.88889   0.77778   0.22620   0.00000  Uiso   1.00
Cu412  Cu    0.88889   0.69444   0.22620   0.00000  Uiso   1.00
Cu413  Cu    0.97222   0.69444   0.22620   0.00000  Uiso   1.00
Cu414  Cu    0.97222   0.77778   0.22620   0.00000  Uiso   1.00
Zn139  Zn    0.05556   0.94444   0.22620   0.00000  Uiso   1.00
Cu415  Cu    0.05556   0.86111   0.22620   0.00000  Uiso   1.00
Cu416  Cu    0.13889   0.86111   0.22620   0.00000  Uiso   1.00
Cu417  Cu    0.13889   0.94444   0.22620   0.00000  Uiso   1.00
Zn140  Zn    0.22222   0.94444   0.22620   0.00000  Uiso   1.00
Cu418  Cu    0.22222   0.86111   0.22620   0.00000  Uiso   1.00
Cu419  Cu    0.30556   0.86111   0.22620   0.00000  Uiso   1.00
Cu420  Cu    0.30556   0.94444   0.22620   0.00000  Uiso   1.00
Zn141  Zn    0.38889   0.94444   0.22620   0.00000  Uiso   1.00
Cu421  Cu    0.38889   0.86111   0.22620   0.00000  Uiso   1.00
Cu422  Cu    0.47222   0.86111   0.22620   0.00000  Uiso   1.00
Cu423  Cu    0.47222   0.94444   0.22620   0.00000  Uiso   1.00
Zn142  Zn    0.55556   0.94444   0.22620   0.00000  Uiso   1.00
Cu424  Cu    0.55556   0.86111   0.22620   0.00000  Uiso   1.00
Cu425  Cu    0.63889   0.86111   0.22620   0.00000  Uiso   1.00
Cu426  Cu    0.63889   0.94444   0.22620   0.00000  Uiso   1.00
Zn143  Zn    0.72222   0.94444   0.22620   0.00000  Uiso   1.00
Cu427  Cu    0.72222   0.86111   0.22620   0.00000  Uiso   1.00
Cu428  Cu    0.80556   0.86111   0.22620   0.00000  Uiso   1.00
Cu429  Cu    0.80556   0.94444   0.22620   0.00000  Uiso   1.00
Zn144  Zn    0.88889   0.94444   0.22620   0.00000  Uiso   1.00
Cu430  Cu    0.88889   0.86111   0.22620   0.00000  Uiso   1.00
Cu431  Cu    0.97222   0.86111   0.22620   0.00000  Uiso   1.00
Cu432  Cu    0.97222   0.94444   0.22620   0.00000  Uiso   1.00
Cu433  Cu    0.33329   0.91465   0.28471   0.00000  Uiso   1.00
Cu434  Cu    0.92125   0.50072   0.28831   0.00000  Uiso   1.00
Zn145  Zn    0.17096   0.33426   0.28232   0.00000  Uiso   1.00
Cu435  Cu    0.58648   0.41294   0.28692   0.00000  Uiso   1.00
Cu436  Cu    0.49495   0.25142   0.28885   0.00000  Uiso   1.00
Cu437  Cu    0.91309   0.91405   0.28402   0.00000  Uiso   1.00
Cu438  Cu    0.58363   0.83047   0.28891   0.00000  Uiso   1.00
Cu439  Cu    0.25390   0.67092   0.28677   0.00000  Uiso   1.00
Cu440  Cu    0.17004   0.58570   0.28293   0.00000  Uiso   1.00
Cu441  Cu    0.58366   0.57995   0.28666   0.00000  Uiso   1.00
Cu442  Cu    0.49932   0.74548   0.28465   0.00000  Uiso   1.00
Cu443  Cu    0.74793   0.74465   0.28334   0.00000  Uiso   1.00
Zn146  Zn    0.33411   0.49900   0.28261   0.00000  Uiso   1.00
Cu444  Cu    0.83032   0.74837   0.28668   0.00000  Uiso   1.00
Cu445  Cu    0.42398   0.42357   0.28297   0.00000  Uiso   1.00
Cu446  Cu    0.08615   0.42289   0.28557   0.00000  Uiso   1.00
Cu447  Cu    0.08879   0.50205   0.28534   0.00000  Uiso   1.00
Cu448  Cu    0.90740   0.65900   0.28635   0.00000  Uiso   1.00
Cu449  Cu    0.83046   0.57769   0.28297   0.00000  Uiso   1.00
Cu450  Cu    0.42132   0.58648   0.28738   0.00000  Uiso   1.00
Zn147  Zn    0.99600   0.16496   0.28666   0.00000  Uiso   1.00
Cu451  Cu    0.41358   0.91870   0.29025   0.00000  Uiso   1.00
Cu452  Cu    0.83123   0.24852   0.28915   0.00000  Uiso   1.00
Cu453  Cu    0.74684   0.41285   0.28658   0.00000  Uiso   1.00
Cu454  Cu    0.17030   0.08692   0.28401   0.00000  Uiso   1.00
Cu455  Cu    0.74753   0.82961   0.28414   0.00000  Uiso   1.00
Zn148  Zn    0.33223   0.33667   0.28937   0.00000  Uiso   1.00
Cu456  Cu    0.16570   0.41536   0.28606   0.00000  Uiso   1.00
Zn149  Zn    0.83104   0.82931   0.28640   0.00000  Uiso   1.00
Cu457  Cu    0.08615   0.00432   0.28698   0.00000  Uiso   1.00
Cu458  Cu    0.58060   0.91090   0.28667   0.00000  Uiso   1.00
Cu459  Cu    0.82943   0.91343   0.28862   0.00000  Uiso   1.00
Zn150  Zn    0.99590   0.66695   0.28385   0.00000  Uiso   1.00
Cu460  Cu    0.91141   0.83440   0.28588   0.00000  Uiso   1.00
Cu461  Cu    0.50474   0.41822   0.28548   0.00000  Uiso   1.00
Cu462  Cu    0.99896   0.91605   0.28330   0.00000  Uiso   1.00
Cu463  Cu    0.66893   0.41716   0.28392   0.00000  Uiso   1.00
Cu464  Cu    0.74257   0.91164   0.28323   0.00000  Uiso   1.00
Cu465  Cu    0.33875   0.58983   0.28726   0.00000  Uiso   1.00
Cu466  Cu    0.25006   0.50452   0.28600   0.00000  Uiso   1.00
Zn151  Zn    0.83438   0.16692   0.29079   0.00000  Uiso   1.00
Zn152  Zn    0.83254   0.00004   0.28557   0.00000  Uiso   1.00
Cu467  Cu    0.25088   0.00221   0.28646   0.00000  Uiso   1.00
Zn153  Zn    0.16493   0.66775   0.28667   0.00000  Uiso   1.00
Zn154  Zn    0.66628   0.49553   0.28633   0.00000  Uiso   1.00
Zn155  Zn    0.16530   0.99889   0.28615   0.00000  Uiso   1.00
Cu468  Cu    0.41983   0.50243   0.28613   0.00000  Uiso   1.00
Cu469  Cu    0.42120   0.83629   0.28220   0.00000  Uiso   1.00
Cu470  Cu    0.25021   0.58817   0.28726   0.00000  Uiso   1.00
Cu471  Cu    0.16576   0.91779   0.28491   0.00000  Uiso   1.00
Cu472  Cu    0.58502   0.08613   0.28715   0.00000  Uiso   1.00
Zn156  Zn    0.50273   0.17232   0.28767   0.00000  Uiso   1.00
Cu473  Cu    0.91617   0.24980   0.28926   0.00000  Uiso   1.00
Cu474  Cu    0.59082   0.50077   0.28745   0.00000  Uiso   1.00
Cu475  Cu    0.00073   0.25029   0.28938   0.00000  Uiso   1.00
Zn157  Zn    0.00163   0.33583   0.28808   0.00000  Uiso   1.00
Cu476  Cu    0.66181   0.74467   0.28401   0.00000  Uiso   1.00
Cu477  Cu    0.91709   0.16706   0.28661   0.00000  Uiso   1.00
Cu478  Cu    0.16663   0.75343   0.28466   0.00000  Uiso   1.00
Cu479  Cu    0.49626   0.08045   0.28731   0.00000  Uiso   1.00
Zn158  Zn    0.33372   0.66995   0.28457   0.00000  Uiso   1.00
Zn159  Zn    0.99457   0.82960   0.28600   0.00000  Uiso   1.00
Zn160  Zn    0.33096   0.99838   0.29049   0.00000  Uiso   1.00
Cu480  Cu    0.25175   0.33822   0.28594   0.00000  Uiso   1.00
Cu481  Cu    0.91276   0.08115   0.28493   0.00000  Uiso   1.00
Cu482  Cu    0.91627   0.57715   0.28389   0.00000  Uiso   1.00
Cu483  Cu    0.41052   0.24731   0.28818   0.00000  Uiso   1.00
Cu484  Cu    0.24736   0.75141   0.28676   0.00000  Uiso   1.00
Cu485  Cu    0.41652   0.16587   0.28502   0.00000  Uiso   1.00
Cu486  Cu    0.24948   0.25190   0.28463   0.00000  Uiso   1.00
Cu487  Cu    0.74844   0.16822   0.28869   0.00000  Uiso   1.00
Cu488  Cu    0.16882   0.24988   0.28445   0.00000  Uiso   1.00
Cu489  Cu    0.00365   0.41866   0.28457   0.00000  Uiso   1.00
Cu490  Cu    0.75263   0.49974   0.28586   0.00000  Uiso   1.00
Cu491  Cu    0.00132   0.07905   0.28548   0.00000  Uiso   1.00
Zn161  Zn    0.83068   0.66412   0.29565   0.00000  Uiso   1.00
Cu492  Cu    0.83405   0.41474   0.28575   0.00000  Uiso   1.00
Cu493  Cu    0.24703   0.16833   0.28685   0.00000  Uiso   1.00
Zn162  Zn    0.83708   0.33641   0.28916   0.00000  Uiso   1.00
Zn163  Zn    0.66275   0.83160   0.28582   0.00000  Uiso   1.00
Cu494  Cu    0.41435   0.08438   0.28840   0.00000  Uiso   1.00
Cu495  Cu    0.50448   0.91696   0.29015   0.00000  Uiso   1.00
Cu496  Cu    0.08304   0.16690   0.28618   0.00000  Uiso   1.00
Cu497  Cu    0.66957   0.58102   0.28778   0.00000  Uiso   1.00
Cu498  Cu    0.33426   0.25603   0.28582   0.00000  Uiso   1.00
Cu499  Cu    0.92074   0.41449   0.28620   0.00000  Uiso   1.00
Cu500  Cu    0.42130   0.75107   0.28807   0.00000  Uiso   1.00
Cu501  Cu    0.74848   0.57808   0.28461   0.00000  Uiso   1.00
Cu502  Cu    0.07888   0.83161   0.28748   0.00000  Uiso   1.00
Zn164  Zn    0.49679   0.33196   0.28504   0.00000  Uiso   1.00
Zn165  Zn    0.00302   0.50066   0.28893   0.00000  Uiso   1.00
Cu503  Cu    0.07995   0.66576   0.28586   0.00000  Uiso   1.00
Cu504  Cu    0.91419   0.99805   0.28490   0.00000  Uiso   1.00
Cu505  Cu    0.91960   0.33478   0.28394   0.00000  Uiso   1.00
Cu506  Cu    0.25133   0.83489   0.28564   0.00000  Uiso   1.00
Zn166  Zn    0.49912   0.99460   0.28917   0.00000  Uiso   1.00
Zn167  Zn    0.50090   0.50033   0.29194   0.00000  Uiso   1.00
Cu507  Cu    0.58716   0.00049   0.28551   0.00000  Uiso   1.00
Cu508  Cu    0.07812   0.74794   0.28595   0.00000  Uiso   1.00
Cu509  Cu    0.74730   0.24787   0.28817   0.00000  Uiso   1.00
Zn168  Zn    0.66916   0.99976   0.28555   0.00000  Uiso   1.00
Cu510  Cu    0.24817   0.91490   0.28241   0.00000  Uiso   1.00
Cu511  Cu    0.33722   0.08583   0.28717   0.00000  Uiso   1.00
Cu512  Cu    0.91658   0.74822   0.28764   0.00000  Uiso   1.00
Cu513  Cu    0.66477   0.08006   0.28606   0.00000  Uiso   1.00
Cu514  Cu    0.08193   0.58430   0.29029   0.00000  Uiso   1.00
Zn169  Zn    0.66406   0.66287   0.28681   0.00000  Uiso   1.00
Cu515  Cu    0.33484   0.41684   0.28424   0.00000  Uiso   1.00
Cu516  Cu    0.57889   0.74764   0.28625   0.00000  Uiso   1.00
Cu517  Cu    0.75135   0.33431   0.28411   0.00000  Uiso   1.00
Cu518  Cu    0.25501   0.08293   0.28154   0.00000  Uiso   1.00
Zn170  Zn    0.33028   0.16248   0.28655   0.00000  Uiso   1.00
Zn171  Zn    0.66651   0.17209   0.28399   0.00000  Uiso   1.00
Cu519  Cu    0.83005   0.08329   0.28418   0.00000  Uiso   1.00
Zn172  Zn    0.99714   0.99733   0.28558   0.00000  Uiso   1.00
Zn173  Zn    0.49829   0.83152   0.28600   0.00000  Uiso   1.00
Cu520  Cu    0.75030   0.99742   0.28743   0.00000  Uiso   1.00
Zn174  Zn    0.83552   0.49835   0.28528   0.00000  Uiso   1.00
Cu521  Cu    0.75178   0.08748   0.28314   0.00000  Uiso   1.00
Zn175  Zn    0.17027   0.17016   0.28459   0.00000  Uiso   1.00
Cu522  Cu    0.08375   0.25111   0.28557   0.00000  Uiso   1.00
Zn176  Zn    0.49922   0.66423   0.28898   0.00000  Uiso   1.00
Cu523  Cu    0.66230   0.91307   0.29009   0.00000  Uiso   1.00
Cu524  Cu    0.25091   0.41720   0.28656   0.00000  Uiso   1.00
Cu525  Cu    0.58317   0.33280   0.28787   0.00000  Uiso   1.00
Zn177  Zn    0.66435   0.33249   0.28480   0.00000  Uiso   1.00
Zn178  Zn    0.16774   0.49865   0.28780   0.00000  Uiso   1.00
Cu526  Cu    0.57951   0.16332   0.28808   0.00000  Uiso   1.00
Cu527  Cu    0.42013   0.00154   0.28898   0.00000  Uiso   1.00
Cu528  Cu    0.99883   0.58474   0.28803   0.00000  Uiso   1.00
Zn179  Zn    0.33373   0.83296   0.28760   0.00000  Uiso   1.00
Cu529  Cu    0.41403   0.33596   0.28383   0.00000  Uiso   1.00
Cu530  Cu    0.58217   0.66835   0.29092   0.00000  Uiso   1.00
Cu531  Cu    0.07718   0.91295   0.28247   0.00000  Uiso   1.00
Cu532  Cu    0.33396   0.75495   0.29151   0.00000  Uiso   1.00
Cu533  Cu    0.74944   0.66409   0.28597   0.00000  Uiso   1.00
Cu534  Cu    0.08594   0.08629   0.28129   0.00000  Uiso   1.00
Cu535  Cu    0.99778   0.74836   0.28475   0.00000  Uiso   1.00
Cu536  Cu    0.66986   0.25256   0.28479   0.00000  Uiso   1.00
Cu537  Cu    0.58339   0.24994   0.28428   0.00000  Uiso   1.00
Cu538  Cu    0.49979   0.58555   0.28419   0.00000  Uiso   1.00
Cu539  Cu    0.41841   0.66544   0.28824   0.00000  Uiso   1.00
Cu540  Cu    0.08616   0.32968   0.28321   0.00000  Uiso   1.00
Zn180  Zn    0.16447   0.83552   0.28627   0.00000  Uiso   1.00
Cu541  Cu    0.94544   0.64238   0.33936   0.00000  Uiso   1.00
Cu542  Cu    0.76734   0.79198   0.34355   0.00000  Uiso   1.00
Cu543  Cu    0.70320   0.40734   0.35026   0.00000  Uiso   1.00
Cu544  Cu    0.19630   0.30823   0.34507   0.00000  Uiso   1.00
Zn181  Zn    0.94932   0.55629   0.34778   0.00000  Uiso   1.00
Zn182  Zn    0.27850   0.55849   0.34638   0.00000  Uiso   1.00
Zn183  Zn    0.11190   0.05773   0.34561   0.00000  Uiso   1.00
Zn184  Zn    0.44298   0.89183   0.34443   0.00000  Uiso   1.00
Cu545  Cu    0.68853   0.78985   0.34232   0.00000  Uiso   1.00
Cu546  Cu    0.85602   0.96579   0.34551   0.00000  Uiso   1.00
Cu547  Cu    0.02677   0.13785   0.34466   0.00000  Uiso   1.00
Cu548  Cu    0.85009   0.79417   0.34438   0.00000  Uiso   1.00
Zn185  Zn    0.46388   0.42011   0.34645   0.00000  Uiso   1.00
Zn186  Zn    0.11244   0.55739   0.35019   0.00000  Uiso   1.00
Zn187  Zn    0.44678   0.23363   0.34942   0.00000  Uiso   1.00
Zn188  Zn    0.77843   0.39257   0.34493   0.00000  Uiso   1.00
Cu549  Cu    0.28330   0.31073   0.34688   0.00000  Uiso   1.00
Cu550  Cu    0.02943   0.47769   0.35081   0.00000  Uiso   1.00
Cu551  Cu    0.28482   0.47963   0.34286   0.00000  Uiso   1.00
Cu552  Cu    0.19931   0.47666   0.34657   0.00000  Uiso   1.00
Cu553  Cu    0.69282   0.87939   0.34670   0.00000  Uiso   1.00
Cu554  Cu    0.19546   0.39370   0.34221   0.00000  Uiso   1.00
Cu555  Cu    0.93837   0.96524   0.34448   0.00000  Uiso   1.00
Cu556  Cu    0.80811   0.69705   0.34457   0.00000  Uiso   1.00
Zn189  Zn    0.94960   0.22472   0.34560   0.00000  Uiso   1.00
Cu557  Cu    0.86690   0.56859   0.34156   0.00000  Uiso   1.00
Cu558  Cu    0.19853   0.72954   0.34379   0.00000  Uiso   1.00
Cu559  Cu    0.86476   0.30677   0.34163   0.00000  Uiso   1.00
Cu560  Cu    0.46341   0.50798   0.35122   0.00000  Uiso   1.00
Cu561  Cu    0.37270   0.40913   0.34531   0.00000  Uiso   1.00
Cu562  Cu    0.93975   0.88635   0.34575   0.00000  Uiso   1.00
Cu563  Cu    0.85528   0.88088   0.34578   0.00000  Uiso   1.00
Cu564  Cu    0.76956   0.87588   0.34428   0.00000  Uiso   1.00
Zn190  Zn    0.62207   0.40637   0.34292   0.00000  Uiso   1.00
Zn191  Zn    0.93699   0.04899   0.34566   0.00000  Uiso   1.00
Cu565  Cu    0.52210   0.79642   0.34612   0.00000  Uiso   1.00
Cu566  Cu    0.86420   0.22642   0.34610   0.00000  Uiso   1.00
Cu567  Cu    0.19709   0.55752   0.34820   0.00000  Uiso   1.00
Cu568  Cu    0.02836   0.22055   0.34517   0.00000  Uiso   1.00
Cu569  Cu    0.64038   0.60679   0.34842   0.00000  Uiso   1.00
Zn192  Zn    0.94586   0.39350   0.34439   0.00000  Uiso   1.00
Cu570  Cu    0.19675   0.22709   0.34270   0.00000  Uiso   1.00
Cu571  Cu    0.02521   0.88331   0.34267   0.00000  Uiso   1.00
Cu572  Cu    0.85435   0.05007   0.34698   0.00000  Uiso   1.00
Cu573  Cu    0.94010   0.13199   0.34467   0.00000  Uiso   1.00
Cu574  Cu    0.10642   0.96942   0.34345   0.00000  Uiso   1.00
Cu575  Cu    0.10717   0.13595   0.34619   0.00000  Uiso   1.00
Zn193  Zn    0.27642   0.72513   0.34548   0.00000  Uiso   1.00
Cu576  Cu    0.69688   0.22707   0.34678   0.00000  Uiso   1.00
Zn194  Zn    0.11597   0.39638   0.34542   0.00000  Uiso   1.00
Zn195  Zn    0.27801   0.39371   0.34519   0.00000  Uiso   1.00
Cu577  Cu    0.36649   0.98073   0.34555   0.00000  Uiso   1.00
Cu578  Cu    0.19464   0.97558   0.34572   0.00000  Uiso   1.00
Cu579  Cu    0.69737   0.31034   0.34583   0.00000  Uiso   1.00
Cu580  Cu    0.03033   0.64115   0.35059   0.00000  Uiso   1.00
Cu581  Cu    0.37586   0.49091   0.34506   0.00000  Uiso   1.00
Cu582  Cu    0.61816   0.14517   0.34819   0.00000  Uiso   1.00
Cu583  Cu    0.37372   0.32394   0.34410   0.00000  Uiso   1.00
Zn196  Zn    0.61003   0.88141   0.34745   0.00000  Uiso   1.00
Cu584  Cu    0.86221   0.39294   0.34739   0.00000  Uiso   1.00
Zn197  Zn    0.93722   0.80422   0.34450   0.00000  Uiso   1.00
Zn198  Zn    0.11192   0.22265   0.34650   0.00000  Uiso   1.00
Cu585  Cu    0.60996   0.96818   0.34849   0.00000  Uiso   1.00
Cu586  Cu    0.60600   0.79523   0.34694   0.00000  Uiso   1.00
Cu587  Cu    0.36775   0.56719   0.34445   0.00000  Uiso   1.00
Cu588  Cu    0.63261   0.50814   0.34795   0.00000  Uiso   1.00
Cu589  Cu    0.36530   0.64854   0.34072   0.00000  Uiso   1.00
Cu590  Cu    0.19178   0.05307   0.34428   0.00000  Uiso   1.00
Zn199  Zn    0.44821   0.14808   0.34732   0.00000  Uiso   1.00
Cu591  Cu    0.77363   0.96006   0.34702   0.00000  Uiso   1.00
Cu592  Cu    0.94748   0.30838   0.34925   0.00000  Uiso   1.00
Zn200  Zn    0.27952   0.97896   0.34904   0.00000  Uiso   1.00
Cu593  Cu    0.02793   0.39502   0.34955   0.00000  Uiso   1.00
Cu594  Cu    0.45848   0.33041   0.35076   0.00000  Uiso   1.00
Cu595  Cu    0.03635   0.31014   0.34413   0.00000  Uiso   1.00
Cu596  Cu    0.53025   0.14236   0.34870   0.00000  Uiso   1.00
Cu597  Cu    0.19614   0.81165   0.34475   0.00000  Uiso   1.00
Cu598  Cu    0.01913   0.79713   0.34417   0.00000  Uiso   1.00
Zn201  Zn    0.11135   0.72044   0.33949   0.00000  Uiso   1.00
Cu599  Cu    0.27615   0.14183   0.34505   0.00000  Uiso   1.00
Cu600  Cu    0.53223   0.06201   0.34630   0.00000  Uiso   1.00
Cu601  Cu    0.78963   0.48619   0.34739   0.00000  Uiso   1.00
Cu602  Cu    0.94635   0.47673   0.34825   0.00000  Uiso   1.00
Cu603  Cu    0.02651   0.97143   0.34835   0.00000  Uiso   1.00
Cu604  Cu    0.69217   0.13904   0.34677   0.00000  Uiso   1.00
Cu605  Cu    0.19432   0.13701   0.34332   0.00000  Uiso   1.00
Cu606  Cu    0.52841   0.88406   0.34454   0.00000  Uiso   1.00
Zn202  Zn    0.60744   0.05041   0.34349   0.00000  Uiso   1.00
Cu607  Cu    0.11585   0.30982   0.34572   0.00000  Uiso   1.00
Cu608  Cu    0.03355   0.56184   0.35334   0.00000  Uiso   1.00
Zn203  Zn    0.10814   0.88820   0.34666   0.00000  Uiso   1.00
Zn204  Zn    0.27661   0.22475   0.34297   0.00000  Uiso   1.00
Cu609  Cu    0.86542   0.47954   0.34285   0.00000  Uiso   1.00
Cu610  Cu    0.02911   0.72093   0.34262   0.00000  Uiso   1.00
Cu611  Cu    0.78366   0.31040   0.34569   0.00000  Uiso   1.00
Cu612  Cu    0.79912   0.59672   0.34862   0.00000  Uiso   1.00
Zn205  Zn    0.61443   0.22756   0.34322   0.00000  Uiso   1.00
Cu613  Cu    0.69014   0.05113   0.34641   0.00000  Uiso   1.00
Cu614  Cu    0.54311   0.41359   0.34343   0.00000  Uiso   1.00
Cu615  Cu    0.72168   0.60246   0.34721   0.00000  Uiso   1.00
Cu616  Cu    0.19754   0.63879   0.34764   0.00000  Uiso   1.00
Cu617  Cu    0.44801   0.97421   0.35182   0.00000  Uiso   1.00
Cu618  Cu    0.86070   0.13908   0.34929   0.00000  Uiso   1.00
Cu619  Cu    0.27954   0.64362   0.34607   0.00000  Uiso   1.00
Zn206  Zn    0.77773   0.22580   0.34659   0.00000  Uiso   1.00
Cu620  Cu    0.11026   0.80703   0.34363   0.00000  Uiso   1.00
Cu621  Cu    0.46561   0.59205   0.34738   0.00000  Uiso   1.00
Cu622  Cu    0.44143   0.80869   0.34490   0.00000  Uiso   1.00
Cu623  Cu    0.11493   0.47722   0.34966   0.00000  Uiso   1.00
Cu624  Cu    0.37007   0.23702   0.34750   0.00000  Uiso   1.00
Cu625  Cu    0.53120   0.96830   0.35408   0.00000  Uiso   1.00
Cu626  Cu    0.53603   0.31971   0.35010   0.00000  Uiso   1.00
Cu627  Cu    0.53110   0.23479   0.34574   0.00000  Uiso   1.00
Cu628  Cu    0.27723   0.80730   0.34350   0.00000  Uiso   1.00
Zn207  Zn    0.28116   0.89865   0.34307   0.00000  Uiso   1.00
Zn208  Zn    0.77514   0.05295   0.34645   0.00000  Uiso   1.00
Cu629  Cu    0.36892   0.06193   0.34888   0.00000  Uiso   1.00
Cu630  Cu    0.28344   0.06386   0.34467   0.00000  Uiso   1.00
Cu631  Cu    0.36039   0.14365   0.35246   0.00000  Uiso   1.00
Cu632  Cu    0.55191   0.51759   0.34877   0.00000  Uiso   1.00
Cu633  Cu    0.71351   0.50369   0.34422   0.00000  Uiso   1.00
Cu634  Cu    0.02396   0.05692   0.34777   0.00000  Uiso   1.00
Zn209  Zn    0.71974   0.69154   0.34362   0.00000  Uiso   1.00
Cu635  Cu    0.55034   0.60003   0.34551   0.00000  Uiso   1.00
Cu636  Cu    0.36408   0.89429   0.34949   0.00000  Uiso   1.00
Cu637  Cu    0.36205   0.72758   0.34837   0.00000  Uiso   1.00
Cu638  Cu    0.35965   0.80961   0.34965   0.00000  Uiso   1.00
Cu639  Cu    0.77866   0.13917   0.34342   0.00000  Uiso   1.00
Cu640  Cu    0.63449   0.69460   0.34833   0.00000  Uiso   1.00
Cu641  Cu    0.44732   0.06246   0.34854   0.00000  Uiso   1.00
Cu642  Cu    0.69307   0.96634   0.34665   0.00000  Uiso   1.00
Cu643  Cu    0.19237   0.88939   0.34603   0.00000  Uiso   1.00
Cu644  Cu    0.11636   0.64524   0.34725   0.00000  Uiso   1.00
Cu645  Cu    0.61976   0.31597   0.34573   0.00000  Uiso   1.00
Cu646  Cu    0.54922   0.69661   0.34679   0.00000  Uiso   1.00
Zn210  Zn    0.46125   0.69605   0.36044   0.00000  Uiso   1.00
Cu647  Cu    0.90802   0.69999   0.34858   0.00000  Uiso   1.00
Cu648  Cu    0.87668   0.74804   0.39135   0.00000  Uiso   1.00
Cu649  Cu    0.70806   0.75173   0.39342   0.00000  Uiso   1.00
Cu650  Cu    0.14053   0.02403   0.40397   0.00000  Uiso   1.00
Cu651  Cu    0.64796   0.46644   0.40275   0.00000  Uiso   1.00
Cu652  Cu    0.79266   0.74917   0.39794   0.00000  Uiso   1.00
Cu653  Cu    0.63172   0.75668   0.40011   0.00000  Uiso   1.00
Cu654  Cu    0.87896   0.84122   0.40095   0.00000  Uiso   1.00
Cu655  Cu    0.89277   0.62499   0.39846   0.00000  Uiso   1.00
Cu656  Cu    0.54326   0.75653   0.40238   0.00000  Uiso   1.00
Zn211  Zn    0.97453   0.94611   0.41022   0.00000  Uiso   1.00
Cu657  Cu    0.97470   0.61368   0.40751   0.00000  Uiso   1.00
Cu658  Cu    0.22936   0.44771   0.40074   0.00000  Uiso   1.00
Cu659  Cu    0.22019   0.36163   0.40396   0.00000  Uiso   1.00
Cu660  Cu    0.31636   0.28567   0.40056   0.00000  Uiso   1.00
Cu661  Cu    0.31278   0.36609   0.40470   0.00000  Uiso   1.00
Cu662  Cu    0.14079   0.10792   0.40522   0.00000  Uiso   1.00
Cu663  Cu    0.97502   0.28048   0.40423   0.00000  Uiso   1.00
Cu664  Cu    0.71394   0.27882   0.40190   0.00000  Uiso   1.00
Cu665  Cu    0.22821   0.28008   0.40354   0.00000  Uiso   1.00
Cu666  Cu    0.80993   0.28088   0.40306   0.00000  Uiso   1.00
Cu667  Cu    0.31560   0.44991   0.39824   0.00000  Uiso   1.00
Cu668  Cu    0.38969   0.61788   0.40028   0.00000  Uiso   1.00
Cu669  Cu    0.30896   0.53051   0.40396   0.00000  Uiso   1.00
Cu670  Cu    0.71480   0.83805   0.40231   0.00000  Uiso   1.00
Cu671  Cu    0.14151   0.36555   0.40479   0.00000  Uiso   1.00
Cu672  Cu    0.22704   0.11231   0.40043   0.00000  Uiso   1.00
Cu673  Cu    0.73685   0.65588   0.40285   0.00000  Uiso   1.00
Cu674  Cu    0.30494   0.61699   0.39930   0.00000  Uiso   1.00
Cu675  Cu    0.57662   0.47178   0.40304   0.00000  Uiso   1.00
Cu676  Cu    0.88555   0.36012   0.40405   0.00000  Uiso   1.00
Cu677  Cu    0.71989   0.36912   0.40228   0.00000  Uiso   1.00
Cu678  Cu    0.64455   0.37533   0.40427   0.00000  Uiso   1.00
Cu679  Cu    0.65377   0.65844   0.40539   0.00000  Uiso   1.00
Cu680  Cu    0.80919   0.44809   0.40382   0.00000  Uiso   1.00
Cu681  Cu    0.49504   0.47691   0.40757   0.00000  Uiso   1.00
Cu682  Cu    0.46805   0.77733   0.40441   0.00000  Uiso   1.00
Cu683  Cu    0.14722   0.53446   0.41018   0.00000  Uiso   1.00
Cu684  Cu    0.05796   0.28108   0.39987   0.00000  Uiso   1.00
Cu685  Cu    0.55754   0.11366   0.40490   0.00000  Uiso   1.00
Cu686  Cu    0.79970   0.84095   0.40321   0.00000  Uiso   1.00
Cu687  Cu    0.65458   0.56327   0.40089   0.00000  Uiso   1.00
Cu688  Cu    0.97637   0.52936   0.41035   0.00000  Uiso   1.00
Cu689  Cu    0.56675   0.38557   0.40282   0.00000  Uiso   1.00
Cu690  Cu    0.80158   0.36031   0.40252   0.00000  Uiso   1.00
Cu691  Cu    0.30327   0.70007   0.40392   0.00000  Uiso   1.00
Cu692  Cu    0.97523   0.02673   0.40285   0.00000  Uiso   1.00
Cu693  Cu    0.05881   0.45227   0.40803   0.00000  Uiso   1.00
Cu694  Cu    0.97247   0.11042   0.40368   0.00000  Uiso   1.00
Cu695  Cu    0.80221   0.93320   0.40276   0.00000  Uiso   1.00
Cu696  Cu    0.47707   0.12237   0.40643   0.00000  Uiso   1.00
Cu697  Cu    0.05541   0.10834   0.40664   0.00000  Uiso   1.00
Cu698  Cu    0.57508   0.56782   0.40599   0.00000  Uiso   1.00
Cu699  Cu    0.49257   0.39103   0.40464   0.00000  Uiso   1.00
Cu700  Cu    0.22122   0.69615   0.40436   0.00000  Uiso   1.00
Cu701  Cu    0.89108   0.27922   0.40461   0.00000  Uiso   1.00
Cu702  Cu    0.31279   0.20046   0.40391   0.00000  Uiso   1.00
Cu703  Cu    0.40893   0.46656   0.40719   0.00000  Uiso   1.00
Cu704  Cu    0.14007   0.27679   0.40179   0.00000  Uiso   1.00
Cu705  Cu    0.55948   0.02857   0.40425   0.00000  Uiso   1.00
Cu706  Cu    0.48606   0.29925   0.40503   0.00000  Uiso   1.00
Cu707  Cu    0.05418   0.94053   0.40187   0.00000  Uiso   1.00
Cu708  Cu    0.72477   0.19621   0.40189   0.00000  Uiso   1.00
Cu709  Cu    0.88493   0.93401   0.40835   0.00000  Uiso   1.00
Cu710  Cu    0.81132   0.54654   0.39823   0.00000  Uiso   1.00
Cu711  Cu    0.23065   0.53154   0.40739   0.00000  Uiso   1.00
Cu712  Cu    0.55505   0.84669   0.40369   0.00000  Uiso   1.00
Cu713  Cu    0.56015   0.20070   0.40047   0.00000  Uiso   1.00
Cu714  Cu    0.88872   0.53759   0.40072   0.00000  Uiso   1.00
Cu715  Cu    0.97483   0.45032   0.40650   0.00000  Uiso   1.00
Cu716  Cu    0.96887   0.86158   0.40713   0.00000  Uiso   1.00
Cu717  Cu    0.04981   0.85967   0.40207   0.00000  Uiso   1.00
Cu718  Cu    0.05602   0.35948   0.40145   0.00000  Uiso   1.00
Cu719  Cu    0.14384   0.78604   0.40056   0.00000  Uiso   1.00
Cu720  Cu    0.63542   0.27857   0.40080   0.00000  Uiso   1.00
Cu721  Cu    0.40551   0.38460   0.40598   0.00000  Uiso   1.00
Cu722  Cu    0.14103   0.18957   0.40333   0.00000  Uiso   1.00
Cu723  Cu    0.05914   0.69933   0.40223   0.00000  Uiso   1.00
Cu724  Cu    0.47630   0.94349   0.40893   0.00000  Uiso   1.00
Cu725  Cu    0.88950   0.10332   0.40351   0.00000  Uiso   1.00
Cu726  Cu    0.73235   0.55546   0.40168   0.00000  Uiso   1.00
Cu727  Cu    0.82267   0.64735   0.40226   0.00000  Uiso   1.00
Cu728  Cu    0.88635   0.01514   0.40805   0.00000  Uiso   1.00
Cu729  Cu    0.05802   0.19357   0.40401   0.00000  Uiso   1.00
Cu730  Cu    0.88873   0.44595   0.40619   0.00000  Uiso   1.00
Cu731  Cu    0.64221   0.11201   0.40316   0.00000  Uiso   1.00
Cu732  Cu    0.38895   0.69622   0.40464   0.00000  Uiso   1.00
Cu733  Cu    0.22311   0.61091   0.40552   0.00000  Uiso   1.00
Cu734  Cu    0.22300   0.94630   0.40871   0.00000  Uiso   1.00
Cu735  Cu    0.31447   0.03800   0.41073   0.00000  Uiso   1.00
Cu736  Cu    0.47554   0.86481   0.40277   0.00000  Uiso   1.00
Cu737  Cu    0.39141   0.77746   0.40761   0.00000  Uiso   1.00
Cu738  Cu    0.22310   0.19233   0.40076   0.00000  Uiso   1.00
Cu739  Cu    0.14684   0.94895   0.40548   0.00000  Uiso   1.00
Cu740  Cu    0.63574   0.84666   0.41136   0.00000  Uiso   1.00
Cu741  Cu    0.48004   0.20669   0.40309   0.00000  Uiso   1.00
Cu742  Cu    0.63811   0.19339   0.40642   0.00000  Uiso   1.00
Cu743  Cu    0.72771   0.45911   0.40641   0.00000  Uiso   1.00
Cu744  Cu    0.63922   0.93733   0.40654   0.00000  Uiso   1.00
Cu745  Cu    0.96971   0.19031   0.40329   0.00000  Uiso   1.00
Cu746  Cu    0.80983   0.19496   0.40572   0.00000  Uiso   1.00
Cu747  Cu    0.47749   0.03276   0.40833   0.00000  Uiso   1.00
Cu748  Cu    0.39939   0.29396   0.40143   0.00000  Uiso   1.00
Cu749  Cu    0.80157   0.10754   0.40331   0.00000  Uiso   1.00
Cu750  Cu    0.49285   0.56498   0.40329   0.00000  Uiso   1.00
Cu751  Cu    0.05752   0.02616   0.40501   0.00000  Uiso   1.00
Cu752  Cu    0.39536   0.94991   0.40867   0.00000  Uiso   1.00
Cu753  Cu    0.97200   0.36456   0.40501   0.00000  Uiso   1.00
Cu754  Cu    0.14120   0.44874   0.40290   0.00000  Uiso   1.00
Cu755  Cu    0.31219   0.95436   0.40142   0.00000  Uiso   1.00
Cu756  Cu    0.30571   0.86071   0.39949   0.00000  Uiso   1.00
Cu757  Cu    0.63847   0.02525   0.40575   0.00000  Uiso   1.00
Cu758  Cu    0.72558   0.11338   0.40120   0.00000  Uiso   1.00
Cu759  Cu    0.79968   0.01590   0.40328   0.00000  Uiso   1.00
Cu760  Cu    0.96536   0.77646   0.40585   0.00000  Uiso   1.00
Cu761  Cu    0.71888   0.93385   0.40241   0.00000  Uiso   1.00
Cu762  Cu    0.56409   0.29037   0.41036   0.00000  Uiso   1.00
Cu763  Cu    0.89020   0.19176   0.40737   0.00000  Uiso   1.00
Cu764  Cu    0.30354   0.78147   0.40392   0.00000  Uiso   1.00
Cu765  Cu    0.39374   0.20854   0.40629   0.00000  Uiso   1.00
Cu766  Cu    0.14067   0.69917   0.40481   0.00000  Uiso   1.00
Cu767  Cu    0.55645   0.94081   0.40843   0.00000  Uiso   1.00
Cu768  Cu    0.56968   0.65368   0.40751   0.00000  Uiso   1.00
Cu769  Cu    0.40257   0.54346   0.39799   0.00000  Uiso   1.00
Cu770  Cu    0.05762   0.78217   0.40387   0.00000  Uiso   1.00
Cu771  Cu    0.97423   0.70246   0.39945   0.00000  Uiso   1.00
Cu772  Cu    0.22291   0.78057   0.40583   0.00000  Uiso   1.00
Zn212  Zn    0.05738   0.52985   0.42553   0.00000  Uiso   1.00
Cu773  Cu    0.22596   0.86965   0.40457   0.00000  Uiso   1.00
Zn213  Zn    0.22935   0.03132   0.41117   0.00000  Uiso   1.00
Cu774  Cu    0.39143   0.86513   0.40610   0.00000  Uiso   1.00
Cu775  Cu    0.39380   0.12209   0.40854   0.00000  Uiso   1.00
Cu776  Cu    0.72337   0.02748   0.40424   0.00000  Uiso   1.00
Cu777  Cu    0.48413   0.64587   0.40195   0.00000  Uiso   1.00
Cu778  Cu    0.13922   0.86450   0.40603   0.00000  Uiso   1.00
Cu779  Cu    0.05814   0.61282   0.40903   0.00000  Uiso   1.00
Cu780  Cu    0.13967   0.61711   0.40509   0.00000  Uiso   1.00
Cu781  Cu    0.39808   0.03709   0.41176   0.00000  Uiso   1.00
Zn214  Zn    0.31269   0.11778   0.42759   0.00000  Uiso   1.00
Cu782  Cu    0.46299   0.70045   0.43204   0.00000  Uiso   1.00
Cu783  Cu    0.90287   0.69787   0.43625   0.00000  Uiso   1.00
Zn215  Zn    0.56124   0.71475   0.44988   0.00000  Uiso   1.00
Cu784  Cu    0.82105   0.71525   0.44697   0.00000  Uiso   1.00
Cu785  Cu    0.73967   0.71744   0.45155   0.00000  Uiso   1.00
Cu786  Cu    0.90826   0.79180   0.45165   0.00000  Uiso   1.00
Cu787  Cu    0.65164   0.71336   0.45345   0.00000  Uiso   1.00
Cu788  Cu    0.73763   0.80378   0.45561   0.00000  Uiso   1.00
Cu789  Cu    0.65714   0.80305   0.45999   0.00000  Uiso   1.00
Zn216  Zn    0.67591   0.52810   0.45658   0.00000  Uiso   1.00
Cu790  Cu    0.74394   0.33782   0.45978   0.00000  Uiso   1.00
Zn217  Zn    0.58136   0.82802   0.46677   0.00000  Uiso   1.00
Cu791  Cu    0.82753   0.80588   0.45533   0.00000  Uiso   1.00
Zn218  Zn    0.17333   0.07921   0.47066   0.00000  Uiso   1.00
Cu792  Cu    0.25937   0.42330   0.46123   0.00000  Uiso   1.00
Cu793  Cu    0.84668   0.60924   0.46019   0.00000  Uiso   1.00
Cu794  Cu    0.91768   0.59271   0.45810   0.00000  Uiso   1.00
Cu795  Cu    0.66354   0.34027   0.46179   0.00000  Uiso   1.00
Cu796  Cu    0.99838   0.07615   0.46004   0.00000  Uiso   1.00
Cu797  Cu    0.67969   0.62302   0.45898   0.00000  Uiso   1.00
Cu798  Cu    0.83436   0.33735   0.46258   0.00000  Uiso   1.00
Cu799  Cu    0.83499   0.51134   0.45621   0.00000  Uiso   1.00
Cu800  Cu    0.58709   0.08865   0.46364   0.00000  Uiso   1.00
Cu801  Cu    0.75094   0.42924   0.46170   0.00000  Uiso   1.00
Cu802  Cu    0.74865   0.25400   0.45738   0.00000  Uiso   1.00
Cu803  Cu    0.82784   0.89446   0.46096   0.00000  Uiso   1.00
Zn219  Zn    0.34382   0.42636   0.46773   0.00000  Uiso   1.00
Cu804  Cu    0.83342   0.42359   0.46289   0.00000  Uiso   1.00
Cu805  Cu    0.73617   0.88960   0.45843   0.00000  Uiso   1.00
Cu806  Cu    0.16750   0.32857   0.46025   0.00000  Uiso   1.00
Zn220  Zn    0.59584   0.61618   0.46713   0.00000  Uiso   1.00
Cu807  Cu    0.34396   0.34100   0.46134   0.00000  Uiso   1.00
Cu808  Cu    0.07932   0.32825   0.45637   0.00000  Uiso   1.00
Cu809  Cu    0.50509   0.09125   0.46224   0.00000  Uiso   1.00
Cu810  Cu    0.33398   0.75359   0.46082   0.00000  Uiso   1.00
Zn221  Zn    0.16578   0.24337   0.46465   0.00000  Uiso   1.00
Cu811  Cu    0.83661   0.25348   0.46226   0.00000  Uiso   1.00
Cu812  Cu    0.25666   0.50854   0.46080   0.00000  Uiso   1.00
Cu813  Cu    0.41382   0.74503   0.46517   0.00000  Uiso   1.00
Cu814  Cu    0.24964   0.66895   0.46266   0.00000  Uiso   1.00
Cu815  Cu    0.51511   0.35743   0.46786   0.00000  Uiso   1.00
Cu816  Cu    0.33261   0.66995   0.46195   0.00000  Uiso   1.00
Zn222  Zn    0.25973   0.33962   0.46565   0.00000  Uiso   1.00
Cu817  Cu    0.99681   0.24604   0.45936   0.00000  Uiso   1.00
Cu818  Cu    0.90831   0.89528   0.46057   0.00000  Uiso   1.00
Zn223  Zn    0.08870   0.00013   0.46595   0.00000  Uiso   1.00
Cu819  Cu    0.08103   0.24489   0.45917   0.00000  Uiso   1.00
Cu820  Cu    0.33640   0.59101   0.45699   0.00000  Uiso   1.00
Zn224  Zn    0.59375   0.43920   0.48003   0.00000  Uiso   1.00
Cu821  Cu    0.83784   0.16064   0.46609   0.00000  Uiso   1.00
Cu822  Cu    0.08364   0.15946   0.46273   0.00000  Uiso   1.00
Cu823  Cu    0.50635   0.26684   0.46337   0.00000  Uiso   1.00
Cu824  Cu    0.66729   0.42609   0.46120   0.00000  Uiso   1.00
Zn225  Zn    0.49946   0.17332   0.46669   0.00000  Uiso   1.00
Cu825  Cu    0.59287   0.52689   0.45698   0.00000  Uiso   1.00
Zn226  Zn    0.08324   0.91439   0.46314   0.00000  Uiso   1.00
Zn227  Zn    0.76549   0.62043   0.45823   0.00000  Uiso   1.00
Cu826  Cu    0.43357   0.27711   0.46154   0.00000  Uiso   1.00
Zn228  Zn    0.91836   0.25148   0.47319   0.00000  Uiso   1.00
Cu827  Cu    0.66408   0.25034   0.46518   0.00000  Uiso   1.00
Zn229  Zn    0.17429   0.50714   0.47076   0.00000  Uiso   1.00
Cu828  Cu    0.58130   0.17296   0.46024   0.00000  Uiso   1.00
Zn230  Zn    0.34611   0.25499   0.46287   0.00000  Uiso   1.00
Zn231  Zn    0.00171   0.42382   0.46299   0.00000  Uiso   1.00
Zn232  Zn    0.91932   0.07708   0.46746   0.00000  Uiso   1.00
Zn233  Zn    0.51345   0.61625   0.47049   0.00000  Uiso   1.00
Zn234  Zn    0.25581   0.16420   0.45934   0.00000  Uiso   1.00
Zn235  Zn    0.49523   0.82729   0.46353   0.00000  Uiso   1.00
Cu829  Cu    0.32997   0.83902   0.45985   0.00000  Uiso   1.00
Cu830  Cu    0.58599   0.99980   0.46585   0.00000  Uiso   1.00
Zn236  Zn    0.09041   0.42513   0.46328   0.00000  Uiso   1.00
Zn237  Zn    0.91356   0.50798   0.46782   0.00000  Uiso   1.00
Cu831  Cu    0.66473   0.91254   0.46711   0.00000  Uiso   1.00
Cu832  Cu    0.17056   0.67279   0.46647   0.00000  Uiso   1.00
Cu833  Cu    0.00727   0.34477   0.46277   0.00000  Uiso   1.00
Zn238  Zn    0.32451   0.91787   0.45543   0.00000  Uiso   1.00
Cu834  Cu    0.75565   0.17011   0.46094   0.00000  Uiso   1.00
Cu835  Cu    0.75169   0.51554   0.45901   0.00000  Uiso   1.00
Cu836  Cu    0.17319   0.16347   0.46834   0.00000  Uiso   1.00
Zn239  Zn    0.43125   0.43788   0.46689   0.00000  Uiso   1.00
Zn240  Zn    0.83588   0.07720   0.47350   0.00000  Uiso   1.00
Cu837  Cu    0.58139   0.91190   0.46234   0.00000  Uiso   1.00
Cu838  Cu    0.42737   0.60260   0.45766   0.00000  Uiso   1.00
Cu839  Cu    0.91727   0.33493   0.46289   0.00000  Uiso   1.00
Cu840  Cu    0.67171   0.08061   0.46286   0.00000  Uiso   1.00
Zn241  Zn    0.08826   0.66608   0.46824   0.00000  Uiso   1.00
Zn242  Zn    0.17617   0.41852   0.46449   0.00000  Uiso   1.00
Cu841  Cu    0.91587   0.16259   0.46331   0.00000  Uiso   1.00
Zn243  Zn    0.41866   0.18405   0.46379   0.00000  Uiso   1.00
Cu842  Cu    0.99594   0.74763   0.46136   0.00000  Uiso   1.00
Cu843  Cu    0.67015   0.99692   0.46043   0.00000  Uiso   1.00
Zn244  Zn    0.43102   0.35188   0.46495   0.00000  Uiso   1.00
Cu844  Cu    0.99623   0.83030   0.46598   0.00000  Uiso   1.00
Cu845  Cu    0.83403   0.98558   0.46749   0.00000  Uiso   1.00
Cu846  Cu    0.99861   0.91459   0.46263   0.00000  Uiso   1.00
Cu847  Cu    0.25333   0.59144   0.46612   0.00000  Uiso   1.00
Cu848  Cu    0.00188   0.16313   0.46061   0.00000  Uiso   1.00
Cu849  Cu    0.07547   0.82915   0.46269   0.00000  Uiso   1.00
Zn245  Zn    0.08604   0.08060   0.46303   0.00000  Uiso   1.00
Zn246  Zn    0.16752   0.84178   0.45958   0.00000  Uiso   1.00
Cu850  Cu    0.16699   0.75482   0.46557   0.00000  Uiso   1.00
Zn247  Zn    0.50779   0.00365   0.46171   0.00000  Uiso   1.00
Cu851  Cu    0.25125   0.83782   0.46180   0.00000  Uiso   1.00
Zn248  Zn    0.00389   0.66487   0.47004   0.00000  Uiso   1.00
Zn249  Zn    0.34201   0.51271   0.47063   0.00000  Uiso   1.00
Cu852  Cu    0.75323   0.99496   0.45794   0.00000  Uiso   1.00
Zn250  Zn    0.16092   0.58350   0.46647   0.00000  Uiso   1.00
Cu853  Cu    0.67160   0.16972   0.45996   0.00000  Uiso   1.00
Cu854  Cu    0.24935   0.75198   0.46335   0.00000  Uiso   1.00
Zn251  Zn    0.91941   0.99165   0.46661   0.00000  Uiso   1.00
Cu855  Cu    0.52023   0.44392   0.46002   0.00000  Uiso   1.00
Zn252  Zn    0.41343   0.92214   0.46659   0.00000  Uiso   1.00
Zn253  Zn    0.26076   0.25583   0.46514   0.00000  Uiso   1.00
Zn254  Zn    0.08127   0.75379   0.46913   0.00000  Uiso   1.00
Zn255  Zn    0.42870   0.52018   0.46569   0.00000  Uiso   1.00
Zn256  Zn    0.75162   0.08277   0.46197   0.00000  Uiso   1.00
Zn257  Zn    0.41523   0.83313   0.46801   0.00000  Uiso   1.00
Zn258  Zn    0.58494   0.25725   0.47287   0.00000  Uiso   1.00
Zn259  Zn    0.50398   0.91898   0.47233   0.00000  Uiso   1.00
Zn260  Zn    0.58505   0.34195   0.47663   0.00000  Uiso   1.00
Zn261  Zn    0.51194   0.52719   0.47035   0.00000  Uiso   1.00
Zn262  Zn    0.91572   0.41697   0.46600   0.00000  Uiso   1.00
Cu856  Cu    0.49842   0.75855   0.49676   0.00000  Uiso   1.00
Zn263  Zn    0.40404   0.66494   0.49723   0.00000  Uiso   1.00
Zn264  Zn    0.92518   0.66775   0.49944   0.00000  Uiso   1.00
Cu857  Cu    0.48664   0.67248   0.49824   0.00000  Uiso   1.00
Zn265  Zn    0.93439   0.75366   0.50745   0.00000  Uiso   1.00
Cu858  Cu    0.67543   0.68056   0.50829   0.00000  Uiso   1.00
Zn266  Zn    0.67803   0.76540   0.51262   0.00000  Uiso   1.00
Zn267  Zn    0.93561   0.84522   0.50597   0.00000  Uiso   1.00
Zn268  Zn    0.84329   0.67583   0.50857   0.00000  Uiso   1.00
Cu859  Cu    0.84867   0.75920   0.51003   0.00000  Uiso   1.00
Zn269  Zn    0.67609   0.85636   0.51736   0.00000  Uiso   1.00
Zn270  Zn    0.75738   0.67592   0.51270   0.00000  Uiso   1.00
Zn271  Zn    0.58820   0.75953   0.51230   0.00000  Uiso   1.00
Cu860  Cu    0.75312   0.94167   0.51263   0.00000  Uiso   1.00
Zn272  Zn    0.84831   0.85214   0.51683   0.00000  Uiso   1.00
Zn273  Zn    0.76480   0.76572   0.51393   0.00000  Uiso   1.00
Zn274  Zn    0.78445   0.32782   0.52348   0.00000  Uiso   1.00
Zn275  Zn    0.68983   0.31036   0.51688   0.00000  Uiso   1.00
Zn276  Zn    0.77595   0.22866   0.51673   0.00000  Uiso   1.00
Zn277  Zn    0.86245   0.56953   0.51438   0.00000  Uiso   1.00
Cu861  Cu    0.68096   0.39072   0.52134   0.00000  Uiso   1.00
Zn278  Zn    0.76985   0.39925   0.52521   0.00000  Uiso   1.00
Zn279  Zn    0.76466   0.48815   0.52471   0.00000  Uiso   1.00
Cu862  Cu    0.21485   0.37425   0.51507   0.00000  Uiso   1.00
Cu863  Cu    0.77281   0.86077   0.51691   0.00000  Uiso   1.00
Cu864  Cu    0.84138   0.48135   0.51567   0.00000  Uiso   1.00
Zn280  Zn    0.83990   0.94898   0.51975   0.00000  Uiso   1.00
Zn281  Zn    0.02354   0.21944   0.51493   0.00000  Uiso   1.00
Zn282  Zn    0.95272   0.32226   0.52367   0.00000  Uiso   1.00
Zn283  Zn    0.11857   0.30428   0.51841   0.00000  Uiso   1.00
Zn284  Zn    0.67948   0.47879   0.51912   0.00000  Uiso   1.00
Zn285  Zn    0.02368   0.30596   0.51431   0.00000  Uiso   1.00
Zn286  Zn    0.86366   0.31949   0.52407   0.00000  Uiso   1.00
Zn287  Zn    0.68622   0.57825   0.51507   0.00000  Uiso   1.00
Zn288  Zn    0.77978   0.57841   0.51836   0.00000  Uiso   1.00
