data_good\(2)
_audit_creation_date              2023-11-02
_audit_creation_method            'Materials Studio'
_symmetry_space_group_name_H-M    'P1'
_symmetry_Int_Tables_number       1
_symmetry_cell_setting            triclinic
loop_
_symmetry_equiv_pos_as_xyz
  x,y,z
_cell_length_a                    30.3555
_cell_length_b                    30.3555
_cell_length_c                    36.5234
_cell_angle_alpha                 90.0000
_cell_angle_beta                  90.0000
_cell_angle_gamma                 120.0000
loop_
_atom_site_label
_atom_site_type_symbol
_atom_site_fract_x
_atom_site_fract_y
_atom_site_fract_z
_atom_site_U_iso_or_equiv
_atom_site_adp_type
_atom_site_occupancy
Zn1    Zn    0.05556   0.11111   0.05655   0.00000  Uiso   1.00
Cu2    Cu    0.05556   0.02778   0.05655   0.00000  Uiso   1.00
Cu3    Cu    0.13889   0.02778   0.05655   0.00000  Uiso   1.00
Cu4    Cu    0.13889   0.11111   0.05655   0.00000  Uiso   1.00
Zn5    Zn    0.22222   0.11111   0.05655   0.00000  Uiso   1.00
Cu6    Cu    0.22222   0.02778   0.05655   0.00000  Uiso   1.00
Cu7    Cu    0.30556   0.02778   0.05655   0.00000  Uiso   1.00
Cu8    Cu    0.30556   0.11111   0.05655   0.00000  Uiso   1.00
Zn9    Zn    0.38889   0.11111   0.05655   0.00000  Uiso   1.00
Cu10   Cu    0.38889   0.02778   0.05655   0.00000  Uiso   1.00
Cu11   Cu    0.47222   0.02778   0.05655   0.00000  Uiso   1.00
Cu12   Cu    0.47222   0.11111   0.05655   0.00000  Uiso   1.00
Zn13   Zn    0.55556   0.11111   0.05655   0.00000  Uiso   1.00
Cu14   Cu    0.55556   0.02778   0.05655   0.00000  Uiso   1.00
Cu15   Cu    0.63889   0.02778   0.05655   0.00000  Uiso   1.00
Cu16   Cu    0.63889   0.11111   0.05655   0.00000  Uiso   1.00
Zn17   Zn    0.72222   0.11111   0.05655   0.00000  Uiso   1.00
Cu18   Cu    0.72222   0.02778   0.05655   0.00000  Uiso   1.00
Cu19   Cu    0.80556   0.02778   0.05655   0.00000  Uiso   1.00
Cu20   Cu    0.80556   0.11111   0.05655   0.00000  Uiso   1.00
Zn21   Zn    0.88889   0.11111   0.05655   0.00000  Uiso   1.00
Cu22   Cu    0.88889   0.02778   0.05655   0.00000  Uiso   1.00
Cu23   Cu    0.97222   0.02778   0.05655   0.00000  Uiso   1.00
Cu24   Cu    0.97222   0.11111   0.05655   0.00000  Uiso   1.00
Zn25   Zn    0.05556   0.27778   0.05655   0.00000  Uiso   1.00
Cu26   Cu    0.05556   0.19444   0.05655   0.00000  Uiso   1.00
Cu27   Cu    0.13889   0.19444   0.05655   0.00000  Uiso   1.00
Cu28   Cu    0.13889   0.27778   0.05655   0.00000  Uiso   1.00
Zn29   Zn    0.22222   0.27778   0.05655   0.00000  Uiso   1.00
Cu30   Cu    0.22222   0.19444   0.05655   0.00000  Uiso   1.00
Cu31   Cu    0.30556   0.19444   0.05655   0.00000  Uiso   1.00
Cu32   Cu    0.30556   0.27778   0.05655   0.00000  Uiso   1.00
Zn33   Zn    0.38889   0.27778   0.05655   0.00000  Uiso   1.00
Cu34   Cu    0.38889   0.19444   0.05655   0.00000  Uiso   1.00
Cu35   Cu    0.47222   0.19444   0.05655   0.00000  Uiso   1.00
Cu36   Cu    0.47222   0.27778   0.05655   0.00000  Uiso   1.00
Zn37   Zn    0.55556   0.27778   0.05655   0.00000  Uiso   1.00
Cu38   Cu    0.55556   0.19444   0.05655   0.00000  Uiso   1.00
Cu39   Cu    0.63889   0.19444   0.05655   0.00000  Uiso   1.00
Cu40   Cu    0.63889   0.27778   0.05655   0.00000  Uiso   1.00
Zn41   Zn    0.72222   0.27778   0.05655   0.00000  Uiso   1.00
Cu42   Cu    0.72222   0.19444   0.05655   0.00000  Uiso   1.00
Cu43   Cu    0.80556   0.19444   0.05655   0.00000  Uiso   1.00
Cu44   Cu    0.80556   0.27778   0.05655   0.00000  Uiso   1.00
Zn45   Zn    0.88889   0.27778   0.05655   0.00000  Uiso   1.00
Cu46   Cu    0.88889   0.19444   0.05655   0.00000  Uiso   1.00
Cu47   Cu    0.97222   0.19444   0.05655   0.00000  Uiso   1.00
Cu48   Cu    0.97222   0.27778   0.05655   0.00000  Uiso   1.00
Zn49   Zn    0.05556   0.44444   0.05655   0.00000  Uiso   1.00
Cu50   Cu    0.05556   0.36111   0.05655   0.00000  Uiso   1.00
Cu51   Cu    0.13889   0.36111   0.05655   0.00000  Uiso   1.00
Cu52   Cu    0.13889   0.44444   0.05655   0.00000  Uiso   1.00
Zn53   Zn    0.22222   0.44444   0.05655   0.00000  Uiso   1.00
Cu54   Cu    0.22222   0.36111   0.05655   0.00000  Uiso   1.00
Cu55   Cu    0.30556   0.36111   0.05655   0.00000  Uiso   1.00
Cu56   Cu    0.30556   0.44444   0.05655   0.00000  Uiso   1.00
Zn57   Zn    0.38889   0.44444   0.05655   0.00000  Uiso   1.00
Cu58   Cu    0.38889   0.36111   0.05655   0.00000  Uiso   1.00
Cu59   Cu    0.47222   0.36111   0.05655   0.00000  Uiso   1.00
Cu60   Cu    0.47222   0.44444   0.05655   0.00000  Uiso   1.00
Zn61   Zn    0.55556   0.44444   0.05655   0.00000  Uiso   1.00
Cu62   Cu    0.55556   0.36111   0.05655   0.00000  Uiso   1.00
Cu63   Cu    0.63889   0.36111   0.05655   0.00000  Uiso   1.00
Cu64   Cu    0.63889   0.44444   0.05655   0.00000  Uiso   1.00
Zn65   Zn    0.72222   0.44444   0.05655   0.00000  Uiso   1.00
Cu66   Cu    0.72222   0.36111   0.05655   0.00000  Uiso   1.00
Cu67   Cu    0.80556   0.36111   0.05655   0.00000  Uiso   1.00
Cu68   Cu    0.80556   0.44444   0.05655   0.00000  Uiso   1.00
Zn69   Zn    0.88889   0.44444   0.05655   0.00000  Uiso   1.00
Cu70   Cu    0.88889   0.36111   0.05655   0.00000  Uiso   1.00
Cu71   Cu    0.97222   0.36111   0.05655   0.00000  Uiso   1.00
Cu72   Cu    0.97222   0.44444   0.05655   0.00000  Uiso   1.00
Zn73   Zn    0.05556   0.61111   0.05655   0.00000  Uiso   1.00
Cu74   Cu    0.05556   0.52778   0.05655   0.00000  Uiso   1.00
Cu75   Cu    0.13889   0.52778   0.05655   0.00000  Uiso   1.00
Cu76   Cu    0.13889   0.61111   0.05655   0.00000  Uiso   1.00
Zn77   Zn    0.22222   0.61111   0.05655   0.00000  Uiso   1.00
Cu78   Cu    0.22222   0.52778   0.05655   0.00000  Uiso   1.00
Cu79   Cu    0.30556   0.52778   0.05655   0.00000  Uiso   1.00
Cu80   Cu    0.30556   0.61111   0.05655   0.00000  Uiso   1.00
Zn81   Zn    0.38889   0.61111   0.05655   0.00000  Uiso   1.00
Cu82   Cu    0.38889   0.52778   0.05655   0.00000  Uiso   1.00
Cu83   Cu    0.47222   0.52778   0.05655   0.00000  Uiso   1.00
Cu84   Cu    0.47222   0.61111   0.05655   0.00000  Uiso   1.00
Zn85   Zn    0.55556   0.61111   0.05655   0.00000  Uiso   1.00
Cu86   Cu    0.55556   0.52778   0.05655   0.00000  Uiso   1.00
Cu87   Cu    0.63889   0.52778   0.05655   0.00000  Uiso   1.00
Cu88   Cu    0.63889   0.61111   0.05655   0.00000  Uiso   1.00
Zn89   Zn    0.72222   0.61111   0.05655   0.00000  Uiso   1.00
Cu90   Cu    0.72222   0.52778   0.05655   0.00000  Uiso   1.00
Cu91   Cu    0.80556   0.52778   0.05655   0.00000  Uiso   1.00
Cu92   Cu    0.80556   0.61111   0.05655   0.00000  Uiso   1.00
Zn93   Zn    0.88889   0.61111   0.05655   0.00000  Uiso   1.00
Cu94   Cu    0.88889   0.52778   0.05655   0.00000  Uiso   1.00
Cu95   Cu    0.97222   0.52778   0.05655   0.00000  Uiso   1.00
Cu96   Cu    0.97222   0.61111   0.05655   0.00000  Uiso   1.00
Zn97   Zn    0.05556   0.77778   0.05655   0.00000  Uiso   1.00
Cu98   Cu    0.05556   0.69444   0.05655   0.00000  Uiso   1.00
Cu99   Cu    0.13889   0.69444   0.05655   0.00000  Uiso   1.00
Cu100  Cu    0.13889   0.77778   0.05655   0.00000  Uiso   1.00
Zn101  Zn    0.22222   0.77778   0.05655   0.00000  Uiso   1.00
Cu102  Cu    0.22222   0.69444   0.05655   0.00000  Uiso   1.00
Cu103  Cu    0.30556   0.69444   0.05655   0.00000  Uiso   1.00
Cu104  Cu    0.30556   0.77778   0.05655   0.00000  Uiso   1.00
Zn105  Zn    0.38889   0.77778   0.05655   0.00000  Uiso   1.00
Cu106  Cu    0.38889   0.69444   0.05655   0.00000  Uiso   1.00
Cu107  Cu    0.47222   0.69444   0.05655   0.00000  Uiso   1.00
Cu108  Cu    0.47222   0.77778   0.05655   0.00000  Uiso   1.00
Zn109  Zn    0.55556   0.77778   0.05655   0.00000  Uiso   1.00
Cu110  Cu    0.55556   0.69444   0.05655   0.00000  Uiso   1.00
Cu111  Cu    0.63889   0.69444   0.05655   0.00000  Uiso   1.00
Cu112  Cu    0.63889   0.77778   0.05655   0.00000  Uiso   1.00
Zn113  Zn    0.72222   0.77778   0.05655   0.00000  Uiso   1.00
Cu114  Cu    0.72222   0.69444   0.05655   0.00000  Uiso   1.00
Cu115  Cu    0.80556   0.69444   0.05655   0.00000  Uiso   1.00
Cu116  Cu    0.80556   0.77778   0.05655   0.00000  Uiso   1.00
Zn117  Zn    0.88889   0.77778   0.05655   0.00000  Uiso   1.00
Cu118  Cu    0.88889   0.69444   0.05655   0.00000  Uiso   1.00
Cu119  Cu    0.97222   0.69444   0.05655   0.00000  Uiso   1.00
Cu120  Cu    0.97222   0.77778   0.05655   0.00000  Uiso   1.00
Zn121  Zn    0.05556   0.94444   0.05655   0.00000  Uiso   1.00
Cu122  Cu    0.05556   0.86111   0.05655   0.00000  Uiso   1.00
Cu123  Cu    0.13889   0.86111   0.05655   0.00000  Uiso   1.00
Cu124  Cu    0.13889   0.94444   0.05655   0.00000  Uiso   1.00
Zn125  Zn    0.22222   0.94444   0.05655   0.00000  Uiso   1.00
Cu126  Cu    0.22222   0.86111   0.05655   0.00000  Uiso   1.00
Cu127  Cu    0.30556   0.86111   0.05655   0.00000  Uiso   1.00
Cu128  Cu    0.30556   0.94444   0.05655   0.00000  Uiso   1.00
Zn129  Zn    0.38889   0.94444   0.05655   0.00000  Uiso   1.00
Cu130  Cu    0.38889   0.86111   0.05655   0.00000  Uiso   1.00
Cu131  Cu    0.47222   0.86111   0.05655   0.00000  Uiso   1.00
Cu132  Cu    0.47222   0.94444   0.05655   0.00000  Uiso   1.00
Zn133  Zn    0.55556   0.94444   0.05655   0.00000  Uiso   1.00
Cu134  Cu    0.55556   0.86111   0.05655   0.00000  Uiso   1.00
Cu135  Cu    0.63889   0.86111   0.05655   0.00000  Uiso   1.00
Cu136  Cu    0.63889   0.94444   0.05655   0.00000  Uiso   1.00
Zn137  Zn    0.72222   0.94444   0.05655   0.00000  Uiso   1.00
Cu138  Cu    0.72222   0.86111   0.05655   0.00000  Uiso   1.00
Cu139  Cu    0.80556   0.86111   0.05655   0.00000  Uiso   1.00
Cu140  Cu    0.80556   0.94444   0.05655   0.00000  Uiso   1.00
Zn141  Zn    0.88889   0.94444   0.05655   0.00000  Uiso   1.00
Cu142  Cu    0.88889   0.86111   0.05655   0.00000  Uiso   1.00
Cu143  Cu    0.97222   0.86111   0.05655   0.00000  Uiso   1.00
Cu144  Cu    0.97222   0.94444   0.05655   0.00000  Uiso   1.00
Zn145  Zn    0.00000   0.00000   0.11310   0.00000  Uiso   1.00
Cu146  Cu    0.00000   0.08333   0.11310   0.00000  Uiso   1.00
Cu147  Cu    0.08333   0.08333   0.11310   0.00000  Uiso   1.00
Cu148  Cu    0.08333   0.00000   0.11310   0.00000  Uiso   1.00
Zn149  Zn    0.16667   0.00000   0.11310   0.00000  Uiso   1.00
Cu150  Cu    0.16667   0.08333   0.11310   0.00000  Uiso   1.00
Cu151  Cu    0.25000   0.08333   0.11310   0.00000  Uiso   1.00
Cu152  Cu    0.25000   0.00000   0.11310   0.00000  Uiso   1.00
Zn153  Zn    0.33333   0.00000   0.11310   0.00000  Uiso   1.00
Cu154  Cu    0.33333   0.08333   0.11310   0.00000  Uiso   1.00
Cu155  Cu    0.41667   0.08333   0.11310   0.00000  Uiso   1.00
Cu156  Cu    0.41667   0.00000   0.11310   0.00000  Uiso   1.00
Zn157  Zn    0.50000   0.00000   0.11310   0.00000  Uiso   1.00
Cu158  Cu    0.50000   0.08333   0.11310   0.00000  Uiso   1.00
Cu159  Cu    0.58333   0.08333   0.11310   0.00000  Uiso   1.00
Cu160  Cu    0.58333   0.00000   0.11310   0.00000  Uiso   1.00
Zn161  Zn    0.66667   0.00000   0.11310   0.00000  Uiso   1.00
Cu162  Cu    0.66667   0.08333   0.11310   0.00000  Uiso   1.00
Cu163  Cu    0.75000   0.08333   0.11310   0.00000  Uiso   1.00
Cu164  Cu    0.75000   0.00000   0.11310   0.00000  Uiso   1.00
Zn165  Zn    0.83333   0.00000   0.11310   0.00000  Uiso   1.00
Cu166  Cu    0.83333   0.08333   0.11310   0.00000  Uiso   1.00
Cu167  Cu    0.91667   0.08333   0.11310   0.00000  Uiso   1.00
Cu168  Cu    0.91667   0.00000   0.11310   0.00000  Uiso   1.00
Zn169  Zn    0.00000   0.16667   0.11310   0.00000  Uiso   1.00
Cu170  Cu    0.00000   0.25000   0.11310   0.00000  Uiso   1.00
Cu171  Cu    0.08333   0.25000   0.11310   0.00000  Uiso   1.00
Cu172  Cu    0.08333   0.16667   0.11310   0.00000  Uiso   1.00
Zn173  Zn    0.16667   0.16667   0.11310   0.00000  Uiso   1.00
Cu174  Cu    0.16667   0.25000   0.11310   0.00000  Uiso   1.00
Cu175  Cu    0.25000   0.25000   0.11310   0.00000  Uiso   1.00
Cu176  Cu    0.25000   0.16667   0.11310   0.00000  Uiso   1.00
Zn177  Zn    0.33333   0.16667   0.11310   0.00000  Uiso   1.00
Cu178  Cu    0.33333   0.25000   0.11310   0.00000  Uiso   1.00
Cu179  Cu    0.41667   0.25000   0.11310   0.00000  Uiso   1.00
Cu180  Cu    0.41667   0.16667   0.11310   0.00000  Uiso   1.00
Zn181  Zn    0.50000   0.16667   0.11310   0.00000  Uiso   1.00
Cu182  Cu    0.50000   0.25000   0.11310   0.00000  Uiso   1.00
Cu183  Cu    0.58333   0.25000   0.11310   0.00000  Uiso   1.00
Cu184  Cu    0.58333   0.16667   0.11310   0.00000  Uiso   1.00
Zn185  Zn    0.66667   0.16667   0.11310   0.00000  Uiso   1.00
Cu186  Cu    0.66667   0.25000   0.11310   0.00000  Uiso   1.00
Cu187  Cu    0.75000   0.25000   0.11310   0.00000  Uiso   1.00
Cu188  Cu    0.75000   0.16667   0.11310   0.00000  Uiso   1.00
Zn189  Zn    0.83333   0.16667   0.11310   0.00000  Uiso   1.00
Cu190  Cu    0.83333   0.25000   0.11310   0.00000  Uiso   1.00
Cu191  Cu    0.91667   0.25000   0.11310   0.00000  Uiso   1.00
Cu192  Cu    0.91667   0.16667   0.11310   0.00000  Uiso   1.00
Zn193  Zn    0.00000   0.33333   0.11310   0.00000  Uiso   1.00
Cu194  Cu    0.00000   0.41667   0.11310   0.00000  Uiso   1.00
Cu195  Cu    0.08333   0.41667   0.11310   0.00000  Uiso   1.00
Cu196  Cu    0.08333   0.33333   0.11310   0.00000  Uiso   1.00
Zn197  Zn    0.16667   0.33333   0.11310   0.00000  Uiso   1.00
Cu198  Cu    0.16667   0.41667   0.11310   0.00000  Uiso   1.00
Cu199  Cu    0.25000   0.41667   0.11310   0.00000  Uiso   1.00
Cu200  Cu    0.25000   0.33333   0.11310   0.00000  Uiso   1.00
Zn201  Zn    0.33333   0.33333   0.11310   0.00000  Uiso   1.00
Cu202  Cu    0.33333   0.41667   0.11310   0.00000  Uiso   1.00
Cu203  Cu    0.41667   0.41667   0.11310   0.00000  Uiso   1.00
Cu204  Cu    0.41667   0.33333   0.11310   0.00000  Uiso   1.00
Zn205  Zn    0.50000   0.33333   0.11310   0.00000  Uiso   1.00
Cu206  Cu    0.50000   0.41667   0.11310   0.00000  Uiso   1.00
Cu207  Cu    0.58333   0.41667   0.11310   0.00000  Uiso   1.00
Cu208  Cu    0.58333   0.33333   0.11310   0.00000  Uiso   1.00
Zn209  Zn    0.66667   0.33333   0.11310   0.00000  Uiso   1.00
Cu210  Cu    0.66667   0.41667   0.11310   0.00000  Uiso   1.00
Cu211  Cu    0.75000   0.41667   0.11310   0.00000  Uiso   1.00
Cu212  Cu    0.75000   0.33333   0.11310   0.00000  Uiso   1.00
Zn213  Zn    0.83333   0.33333   0.11310   0.00000  Uiso   1.00
Cu214  Cu    0.83333   0.41667   0.11310   0.00000  Uiso   1.00
Cu215  Cu    0.91667   0.41667   0.11310   0.00000  Uiso   1.00
Cu216  Cu    0.91667   0.33333   0.11310   0.00000  Uiso   1.00
Zn217  Zn    0.00000   0.50000   0.11310   0.00000  Uiso   1.00
Cu218  Cu    0.00000   0.58333   0.11310   0.00000  Uiso   1.00
Cu219  Cu    0.08333   0.58333   0.11310   0.00000  Uiso   1.00
Cu220  Cu    0.08333   0.50000   0.11310   0.00000  Uiso   1.00
Zn221  Zn    0.16667   0.50000   0.11310   0.00000  Uiso   1.00
Cu222  Cu    0.16667   0.58333   0.11310   0.00000  Uiso   1.00
Cu223  Cu    0.25000   0.58333   0.11310   0.00000  Uiso   1.00
Cu224  Cu    0.25000   0.50000   0.11310   0.00000  Uiso   1.00
Zn225  Zn    0.33333   0.50000   0.11310   0.00000  Uiso   1.00
Cu226  Cu    0.33333   0.58333   0.11310   0.00000  Uiso   1.00
Cu227  Cu    0.41667   0.58333   0.11310   0.00000  Uiso   1.00
Cu228  Cu    0.41667   0.50000   0.11310   0.00000  Uiso   1.00
Zn229  Zn    0.50000   0.50000   0.11310   0.00000  Uiso   1.00
Cu230  Cu    0.50000   0.58333   0.11310   0.00000  Uiso   1.00
Cu231  Cu    0.58333   0.58333   0.11310   0.00000  Uiso   1.00
Cu232  Cu    0.58333   0.50000   0.11310   0.00000  Uiso   1.00
Zn233  Zn    0.66667   0.50000   0.11310   0.00000  Uiso   1.00
Cu234  Cu    0.66667   0.58333   0.11310   0.00000  Uiso   1.00
Cu235  Cu    0.75000   0.58333   0.11310   0.00000  Uiso   1.00
Cu236  Cu    0.75000   0.50000   0.11310   0.00000  Uiso   1.00
Zn237  Zn    0.83333   0.50000   0.11310   0.00000  Uiso   1.00
Cu238  Cu    0.83333   0.58333   0.11310   0.00000  Uiso   1.00
Cu239  Cu    0.91667   0.58333   0.11310   0.00000  Uiso   1.00
Cu240  Cu    0.91667   0.50000   0.11310   0.00000  Uiso   1.00
Zn241  Zn    0.00000   0.66667   0.11310   0.00000  Uiso   1.00
Cu242  Cu    0.00000   0.75000   0.11310   0.00000  Uiso   1.00
Cu243  Cu    0.08333   0.75000   0.11310   0.00000  Uiso   1.00
Cu244  Cu    0.08333   0.66667   0.11310   0.00000  Uiso   1.00
Zn245  Zn    0.16667   0.66667   0.11310   0.00000  Uiso   1.00
Cu246  Cu    0.16667   0.75000   0.11310   0.00000  Uiso   1.00
Cu247  Cu    0.25000   0.75000   0.11310   0.00000  Uiso   1.00
Cu248  Cu    0.25000   0.66667   0.11310   0.00000  Uiso   1.00
Zn249  Zn    0.33333   0.66667   0.11310   0.00000  Uiso   1.00
Cu250  Cu    0.33333   0.75000   0.11310   0.00000  Uiso   1.00
Cu251  Cu    0.41667   0.75000   0.11310   0.00000  Uiso   1.00
Cu252  Cu    0.41667   0.66667   0.11310   0.00000  Uiso   1.00
Zn253  Zn    0.50000   0.66667   0.11310   0.00000  Uiso   1.00
Cu254  Cu    0.50000   0.75000   0.11310   0.00000  Uiso   1.00
Cu255  Cu    0.58333   0.75000   0.11310   0.00000  Uiso   1.00
Cu256  Cu    0.58333   0.66667   0.11310   0.00000  Uiso   1.00
Zn257  Zn    0.66667   0.66667   0.11310   0.00000  Uiso   1.00
Cu258  Cu    0.66667   0.75000   0.11310   0.00000  Uiso   1.00
Cu259  Cu    0.75000   0.75000   0.11310   0.00000  Uiso   1.00
Cu260  Cu    0.75000   0.66667   0.11310   0.00000  Uiso   1.00
Zn261  Zn    0.83333   0.66667   0.11310   0.00000  Uiso   1.00
Cu262  Cu    0.83333   0.75000   0.11310   0.00000  Uiso   1.00
Cu263  Cu    0.91667   0.75000   0.11310   0.00000  Uiso   1.00
Cu264  Cu    0.91667   0.66667   0.11310   0.00000  Uiso   1.00
Zn265  Zn    0.00000   0.83333   0.11310   0.00000  Uiso   1.00
Cu266  Cu    0.00000   0.91667   0.11310   0.00000  Uiso   1.00
Cu267  Cu    0.08333   0.91667   0.11310   0.00000  Uiso   1.00
Cu268  Cu    0.08333   0.83333   0.11310   0.00000  Uiso   1.00
Zn269  Zn    0.16667   0.83333   0.11310   0.00000  Uiso   1.00
Cu270  Cu    0.16667   0.91667   0.11310   0.00000  Uiso   1.00
Cu271  Cu    0.25000   0.91667   0.11310   0.00000  Uiso   1.00
Cu272  Cu    0.25000   0.83333   0.11310   0.00000  Uiso   1.00
Zn273  Zn    0.33333   0.83333   0.11310   0.00000  Uiso   1.00
Cu274  Cu    0.33333   0.91667   0.11310   0.00000  Uiso   1.00
Cu275  Cu    0.41667   0.91667   0.11310   0.00000  Uiso   1.00
Cu276  Cu    0.41667   0.83333   0.11310   0.00000  Uiso   1.00
Zn277  Zn    0.50000   0.83333   0.11310   0.00000  Uiso   1.00
Cu278  Cu    0.50000   0.91667   0.11310   0.00000  Uiso   1.00
Cu279  Cu    0.58333   0.91667   0.11310   0.00000  Uiso   1.00
Cu280  Cu    0.58333   0.83333   0.11310   0.00000  Uiso   1.00
Zn281  Zn    0.66667   0.83333   0.11310   0.00000  Uiso   1.00
Cu282  Cu    0.66667   0.91667   0.11310   0.00000  Uiso   1.00
Cu283  Cu    0.75000   0.91667   0.11310   0.00000  Uiso   1.00
Cu284  Cu    0.75000   0.83333   0.11310   0.00000  Uiso   1.00
Zn285  Zn    0.83333   0.83333   0.11310   0.00000  Uiso   1.00
Cu286  Cu    0.83333   0.91667   0.11310   0.00000  Uiso   1.00
Cu287  Cu    0.91667   0.91667   0.11310   0.00000  Uiso   1.00
Cu288  Cu    0.91667   0.83333   0.11310   0.00000  Uiso   1.00
Zn289  Zn    0.11111   0.05556   0.16965   0.00000  Uiso   1.00
Cu290  Cu    0.11111   0.13889   0.16965   0.00000  Uiso   1.00
Cu291  Cu    0.02778   0.13889   0.16965   0.00000  Uiso   1.00
Cu292  Cu    0.02778   0.05556   0.16965   0.00000  Uiso   1.00
Zn293  Zn    0.27778   0.05556   0.16965   0.00000  Uiso   1.00
Cu294  Cu    0.27778   0.13889   0.16965   0.00000  Uiso   1.00
Cu295  Cu    0.19444   0.13889   0.16965   0.00000  Uiso   1.00
Cu296  Cu    0.19444   0.05556   0.16965   0.00000  Uiso   1.00
Zn297  Zn    0.44444   0.05556   0.16965   0.00000  Uiso   1.00
Cu298  Cu    0.44444   0.13889   0.16965   0.00000  Uiso   1.00
Cu299  Cu    0.36111   0.13889   0.16965   0.00000  Uiso   1.00
Cu300  Cu    0.36111   0.05556   0.16965   0.00000  Uiso   1.00
Zn301  Zn    0.61111   0.05556   0.16965   0.00000  Uiso   1.00
Cu302  Cu    0.61111   0.13889   0.16965   0.00000  Uiso   1.00
Cu303  Cu    0.52778   0.13889   0.16965   0.00000  Uiso   1.00
Cu304  Cu    0.52778   0.05556   0.16965   0.00000  Uiso   1.00
Zn305  Zn    0.77778   0.05556   0.16965   0.00000  Uiso   1.00
Cu306  Cu    0.77778   0.13889   0.16965   0.00000  Uiso   1.00
Cu307  Cu    0.69444   0.13889   0.16965   0.00000  Uiso   1.00
Cu308  Cu    0.69444   0.05556   0.16965   0.00000  Uiso   1.00
Zn309  Zn    0.94444   0.05556   0.16965   0.00000  Uiso   1.00
Cu310  Cu    0.94444   0.13889   0.16965   0.00000  Uiso   1.00
Cu311  Cu    0.86111   0.13889   0.16965   0.00000  Uiso   1.00
Cu312  Cu    0.86111   0.05556   0.16965   0.00000  Uiso   1.00
Zn313  Zn    0.11111   0.22222   0.16965   0.00000  Uiso   1.00
Cu314  Cu    0.11111   0.30556   0.16965   0.00000  Uiso   1.00
Cu315  Cu    0.02778   0.30556   0.16965   0.00000  Uiso   1.00
Cu316  Cu    0.02778   0.22222   0.16965   0.00000  Uiso   1.00
Zn317  Zn    0.27778   0.22222   0.16965   0.00000  Uiso   1.00
Cu318  Cu    0.27778   0.30556   0.16965   0.00000  Uiso   1.00
Cu319  Cu    0.19444   0.30556   0.16965   0.00000  Uiso   1.00
Cu320  Cu    0.19444   0.22222   0.16965   0.00000  Uiso   1.00
Zn321  Zn    0.44444   0.22222   0.16965   0.00000  Uiso   1.00
Cu322  Cu    0.44444   0.30556   0.16965   0.00000  Uiso   1.00
Cu323  Cu    0.36111   0.30556   0.16965   0.00000  Uiso   1.00
Cu324  Cu    0.36111   0.22222   0.16965   0.00000  Uiso   1.00
Zn325  Zn    0.61111   0.22222   0.16965   0.00000  Uiso   1.00
Cu326  Cu    0.61111   0.30556   0.16965   0.00000  Uiso   1.00
Cu327  Cu    0.52778   0.30556   0.16965   0.00000  Uiso   1.00
Cu328  Cu    0.52778   0.22222   0.16965   0.00000  Uiso   1.00
Zn329  Zn    0.77778   0.22222   0.16965   0.00000  Uiso   1.00
Cu330  Cu    0.77778   0.30556   0.16965   0.00000  Uiso   1.00
Cu331  Cu    0.69444   0.30556   0.16965   0.00000  Uiso   1.00
Cu332  Cu    0.69444   0.22222   0.16965   0.00000  Uiso   1.00
Zn333  Zn    0.94444   0.22222   0.16965   0.00000  Uiso   1.00
Cu334  Cu    0.94444   0.30556   0.16965   0.00000  Uiso   1.00
Cu335  Cu    0.86111   0.30556   0.16965   0.00000  Uiso   1.00
Cu336  Cu    0.86111   0.22222   0.16965   0.00000  Uiso   1.00
Zn337  Zn    0.11111   0.38889   0.16965   0.00000  Uiso   1.00
Cu338  Cu    0.11111   0.47222   0.16965   0.00000  Uiso   1.00
Cu339  Cu    0.02778   0.47222   0.16965   0.00000  Uiso   1.00
Cu340  Cu    0.02778   0.38889   0.16965   0.00000  Uiso   1.00
Zn341  Zn    0.27778   0.38889   0.16965   0.00000  Uiso   1.00
Cu342  Cu    0.27778   0.47222   0.16965   0.00000  Uiso   1.00
Cu343  Cu    0.19444   0.47222   0.16965   0.00000  Uiso   1.00
Cu344  Cu    0.19444   0.38889   0.16965   0.00000  Uiso   1.00
Zn345  Zn    0.44444   0.38889   0.16965   0.00000  Uiso   1.00
Cu346  Cu    0.44444   0.47222   0.16965   0.00000  Uiso   1.00
Cu347  Cu    0.36111   0.47222   0.16965   0.00000  Uiso   1.00
Cu348  Cu    0.36111   0.38889   0.16965   0.00000  Uiso   1.00
Zn349  Zn    0.61111   0.38889   0.16965   0.00000  Uiso   1.00
Cu350  Cu    0.61111   0.47222   0.16965   0.00000  Uiso   1.00
Cu351  Cu    0.52778   0.47222   0.16965   0.00000  Uiso   1.00
Cu352  Cu    0.52778   0.38889   0.16965   0.00000  Uiso   1.00
Zn353  Zn    0.77778   0.38889   0.16965   0.00000  Uiso   1.00
Cu354  Cu    0.77778   0.47222   0.16965   0.00000  Uiso   1.00
Cu355  Cu    0.69444   0.47222   0.16965   0.00000  Uiso   1.00
Cu356  Cu    0.69444   0.38889   0.16965   0.00000  Uiso   1.00
Zn357  Zn    0.94444   0.38889   0.16965   0.00000  Uiso   1.00
Cu358  Cu    0.94444   0.47222   0.16965   0.00000  Uiso   1.00
Cu359  Cu    0.86111   0.47222   0.16965   0.00000  Uiso   1.00
Cu360  Cu    0.86111   0.38889   0.16965   0.00000  Uiso   1.00
Zn361  Zn    0.11111   0.55556   0.16965   0.00000  Uiso   1.00
Cu362  Cu    0.11111   0.63889   0.16965   0.00000  Uiso   1.00
Cu363  Cu    0.02778   0.63889   0.16965   0.00000  Uiso   1.00
Cu364  Cu    0.02778   0.55556   0.16965   0.00000  Uiso   1.00
Zn365  Zn    0.27778   0.55556   0.16965   0.00000  Uiso   1.00
Cu366  Cu    0.27778   0.63889   0.16965   0.00000  Uiso   1.00
Cu367  Cu    0.19444   0.63889   0.16965   0.00000  Uiso   1.00
Cu368  Cu    0.19444   0.55556   0.16965   0.00000  Uiso   1.00
Zn369  Zn    0.44444   0.55556   0.16965   0.00000  Uiso   1.00
Cu370  Cu    0.44444   0.63889   0.16965   0.00000  Uiso   1.00
Cu371  Cu    0.36111   0.63889   0.16965   0.00000  Uiso   1.00
Cu372  Cu    0.36111   0.55556   0.16965   0.00000  Uiso   1.00
Zn373  Zn    0.61111   0.55556   0.16965   0.00000  Uiso   1.00
Cu374  Cu    0.61111   0.63889   0.16965   0.00000  Uiso   1.00
Cu375  Cu    0.52778   0.63889   0.16965   0.00000  Uiso   1.00
Cu376  Cu    0.52778   0.55556   0.16965   0.00000  Uiso   1.00
Zn377  Zn    0.77778   0.55556   0.16965   0.00000  Uiso   1.00
Cu378  Cu    0.77778   0.63889   0.16965   0.00000  Uiso   1.00
Cu379  Cu    0.69444   0.63889   0.16965   0.00000  Uiso   1.00
Cu380  Cu    0.69444   0.55556   0.16965   0.00000  Uiso   1.00
Zn381  Zn    0.94444   0.55556   0.16965   0.00000  Uiso   1.00
Cu382  Cu    0.94444   0.63889   0.16965   0.00000  Uiso   1.00
Cu383  Cu    0.86111   0.63889   0.16965   0.00000  Uiso   1.00
Cu384  Cu    0.86111   0.55556   0.16965   0.00000  Uiso   1.00
Zn385  Zn    0.11111   0.72222   0.16965   0.00000  Uiso   1.00
Cu386  Cu    0.11111   0.80556   0.16965   0.00000  Uiso   1.00
Cu387  Cu    0.02778   0.80556   0.16965   0.00000  Uiso   1.00
Cu388  Cu    0.02778   0.72222   0.16965   0.00000  Uiso   1.00
Zn389  Zn    0.27778   0.72222   0.16965   0.00000  Uiso   1.00
Cu390  Cu    0.27778   0.80556   0.16965   0.00000  Uiso   1.00
Cu391  Cu    0.19444   0.80556   0.16965   0.00000  Uiso   1.00
Cu392  Cu    0.19444   0.72222   0.16965   0.00000  Uiso   1.00
Zn393  Zn    0.44444   0.72222   0.16965   0.00000  Uiso   1.00
Cu394  Cu    0.44444   0.80556   0.16965   0.00000  Uiso   1.00
Cu395  Cu    0.36111   0.80556   0.16965   0.00000  Uiso   1.00
Cu396  Cu    0.36111   0.72222   0.16965   0.00000  Uiso   1.00
Zn397  Zn    0.61111   0.72222   0.16965   0.00000  Uiso   1.00
Cu398  Cu    0.61111   0.80556   0.16965   0.00000  Uiso   1.00
Cu399  Cu    0.52778   0.80556   0.16965   0.00000  Uiso   1.00
Cu400  Cu    0.52778   0.72222   0.16965   0.00000  Uiso   1.00
Zn401  Zn    0.77778   0.72222   0.16965   0.00000  Uiso   1.00
Cu402  Cu    0.77778   0.80556   0.16965   0.00000  Uiso   1.00
Cu403  Cu    0.69444   0.80556   0.16965   0.00000  Uiso   1.00
Cu404  Cu    0.69444   0.72222   0.16965   0.00000  Uiso   1.00
Zn405  Zn    0.94444   0.72222   0.16965   0.00000  Uiso   1.00
Cu406  Cu    0.94444   0.80556   0.16965   0.00000  Uiso   1.00
Cu407  Cu    0.86111   0.80556   0.16965   0.00000  Uiso   1.00
Cu408  Cu    0.86111   0.72222   0.16965   0.00000  Uiso   1.00
Zn409  Zn    0.11111   0.88889   0.16965   0.00000  Uiso   1.00
Cu410  Cu    0.11111   0.97222   0.16965   0.00000  Uiso   1.00
Cu411  Cu    0.02778   0.97222   0.16965   0.00000  Uiso   1.00
Cu412  Cu    0.02778   0.88889   0.16965   0.00000  Uiso   1.00
Zn413  Zn    0.27778   0.88889   0.16965   0.00000  Uiso   1.00
Cu414  Cu    0.27778   0.97222   0.16965   0.00000  Uiso   1.00
Cu415  Cu    0.19444   0.97222   0.16965   0.00000  Uiso   1.00
Cu416  Cu    0.19444   0.88889   0.16965   0.00000  Uiso   1.00
Zn417  Zn    0.44444   0.88889   0.16965   0.00000  Uiso   1.00
Cu418  Cu    0.44444   0.97222   0.16965   0.00000  Uiso   1.00
Cu419  Cu    0.36111   0.97222   0.16965   0.00000  Uiso   1.00
Cu420  Cu    0.36111   0.88889   0.16965   0.00000  Uiso   1.00
Zn421  Zn    0.61111   0.88889   0.16965   0.00000  Uiso   1.00
Cu422  Cu    0.61111   0.97222   0.16965   0.00000  Uiso   1.00
Cu423  Cu    0.52778   0.97222   0.16965   0.00000  Uiso   1.00
Cu424  Cu    0.52778   0.88889   0.16965   0.00000  Uiso   1.00
Zn425  Zn    0.77778   0.88889   0.16965   0.00000  Uiso   1.00
Cu426  Cu    0.77778   0.97222   0.16965   0.00000  Uiso   1.00
Cu427  Cu    0.69444   0.97222   0.16965   0.00000  Uiso   1.00
Cu428  Cu    0.69444   0.88889   0.16965   0.00000  Uiso   1.00
Zn429  Zn    0.94444   0.88889   0.16965   0.00000  Uiso   1.00
Cu430  Cu    0.94444   0.97222   0.16965   0.00000  Uiso   1.00
Cu431  Cu    0.86111   0.97222   0.16965   0.00000  Uiso   1.00
Cu432  Cu    0.86111   0.88889   0.16965   0.00000  Uiso   1.00
Zn433  Zn    0.05556   0.11111   0.22620   0.00000  Uiso   1.00
Cu434  Cu    0.05556   0.02778   0.22620   0.00000  Uiso   1.00
Cu435  Cu    0.13889   0.02778   0.22620   0.00000  Uiso   1.00
Cu436  Cu    0.13889   0.11111   0.22620   0.00000  Uiso   1.00
Zn437  Zn    0.22222   0.11111   0.22620   0.00000  Uiso   1.00
Cu438  Cu    0.22222   0.02778   0.22620   0.00000  Uiso   1.00
Cu439  Cu    0.30556   0.02778   0.22620   0.00000  Uiso   1.00
Cu440  Cu    0.30556   0.11111   0.22620   0.00000  Uiso   1.00
Zn441  Zn    0.38889   0.11111   0.22620   0.00000  Uiso   1.00
Cu442  Cu    0.38889   0.02778   0.22620   0.00000  Uiso   1.00
Cu443  Cu    0.47222   0.02778   0.22620   0.00000  Uiso   1.00
Cu444  Cu    0.47222   0.11111   0.22620   0.00000  Uiso   1.00
Zn445  Zn    0.55556   0.11111   0.22620   0.00000  Uiso   1.00
Cu446  Cu    0.55556   0.02778   0.22620   0.00000  Uiso   1.00
Cu447  Cu    0.63889   0.02778   0.22620   0.00000  Uiso   1.00
Cu448  Cu    0.63889   0.11111   0.22620   0.00000  Uiso   1.00
Zn449  Zn    0.72222   0.11111   0.22620   0.00000  Uiso   1.00
Cu450  Cu    0.72222   0.02778   0.22620   0.00000  Uiso   1.00
Cu451  Cu    0.80556   0.02778   0.22620   0.00000  Uiso   1.00
Cu452  Cu    0.80556   0.11111   0.22620   0.00000  Uiso   1.00
Zn453  Zn    0.88889   0.11111   0.22620   0.00000  Uiso   1.00
Cu454  Cu    0.88889   0.02778   0.22620   0.00000  Uiso   1.00
Cu455  Cu    0.97222   0.02778   0.22620   0.00000  Uiso   1.00
Cu456  Cu    0.97222   0.11111   0.22620   0.00000  Uiso   1.00
Zn457  Zn    0.05556   0.27778   0.22620   0.00000  Uiso   1.00
Cu458  Cu    0.05556   0.19444   0.22620   0.00000  Uiso   1.00
Cu459  Cu    0.13889   0.19444   0.22620   0.00000  Uiso   1.00
Cu460  Cu    0.13889   0.27778   0.22620   0.00000  Uiso   1.00
Zn461  Zn    0.22222   0.27778   0.22620   0.00000  Uiso   1.00
Cu462  Cu    0.22222   0.19444   0.22620   0.00000  Uiso   1.00
Cu463  Cu    0.30556   0.19444   0.22620   0.00000  Uiso   1.00
Cu464  Cu    0.30556   0.27778   0.22620   0.00000  Uiso   1.00
Zn465  Zn    0.38889   0.27778   0.22620   0.00000  Uiso   1.00
Cu466  Cu    0.38889   0.19444   0.22620   0.00000  Uiso   1.00
Cu467  Cu    0.47222   0.19444   0.22620   0.00000  Uiso   1.00
Cu468  Cu    0.47222   0.27778   0.22620   0.00000  Uiso   1.00
Zn469  Zn    0.55556   0.27778   0.22620   0.00000  Uiso   1.00
Cu470  Cu    0.55556   0.19444   0.22620   0.00000  Uiso   1.00
Cu471  Cu    0.63889   0.19444   0.22620   0.00000  Uiso   1.00
Cu472  Cu    0.63889   0.27778   0.22620   0.00000  Uiso   1.00
Zn473  Zn    0.72222   0.27778   0.22620   0.00000  Uiso   1.00
Cu474  Cu    0.72222   0.19444   0.22620   0.00000  Uiso   1.00
Cu475  Cu    0.80556   0.19444   0.22620   0.00000  Uiso   1.00
Cu476  Cu    0.80556   0.27778   0.22620   0.00000  Uiso   1.00
Zn477  Zn    0.88889   0.27778   0.22620   0.00000  Uiso   1.00
Cu478  Cu    0.88889   0.19444   0.22620   0.00000  Uiso   1.00
Cu479  Cu    0.97222   0.19444   0.22620   0.00000  Uiso   1.00
Cu480  Cu    0.97222   0.27778   0.22620   0.00000  Uiso   1.00
Zn481  Zn    0.05556   0.44444   0.22620   0.00000  Uiso   1.00
Cu482  Cu    0.05556   0.36111   0.22620   0.00000  Uiso   1.00
Cu483  Cu    0.13889   0.36111   0.22620   0.00000  Uiso   1.00
Cu484  Cu    0.13889   0.44444   0.22620   0.00000  Uiso   1.00
Zn485  Zn    0.22222   0.44444   0.22620   0.00000  Uiso   1.00
Cu486  Cu    0.22222   0.36111   0.22620   0.00000  Uiso   1.00
Cu487  Cu    0.30556   0.36111   0.22620   0.00000  Uiso   1.00
Cu488  Cu    0.30556   0.44444   0.22620   0.00000  Uiso   1.00
Zn489  Zn    0.38889   0.44444   0.22620   0.00000  Uiso   1.00
Cu490  Cu    0.38889   0.36111   0.22620   0.00000  Uiso   1.00
Cu491  Cu    0.47222   0.36111   0.22620   0.00000  Uiso   1.00
Cu492  Cu    0.47222   0.44444   0.22620   0.00000  Uiso   1.00
Zn493  Zn    0.55556   0.44444   0.22620   0.00000  Uiso   1.00
Cu494  Cu    0.55556   0.36111   0.22620   0.00000  Uiso   1.00
Cu495  Cu    0.63889   0.36111   0.22620   0.00000  Uiso   1.00
Cu496  Cu    0.63889   0.44444   0.22620   0.00000  Uiso   1.00
Zn497  Zn    0.72222   0.44444   0.22620   0.00000  Uiso   1.00
Cu498  Cu    0.72222   0.36111   0.22620   0.00000  Uiso   1.00
Cu499  Cu    0.80556   0.36111   0.22620   0.00000  Uiso   1.00
Cu500  Cu    0.80556   0.44444   0.22620   0.00000  Uiso   1.00
Zn501  Zn    0.88889   0.44444   0.22620   0.00000  Uiso   1.00
Cu502  Cu    0.88889   0.36111   0.22620   0.00000  Uiso   1.00
Cu503  Cu    0.97222   0.36111   0.22620   0.00000  Uiso   1.00
Cu504  Cu    0.97222   0.44444   0.22620   0.00000  Uiso   1.00
Zn505  Zn    0.05556   0.61111   0.22620   0.00000  Uiso   1.00
Cu506  Cu    0.05556   0.52778   0.22620   0.00000  Uiso   1.00
Cu507  Cu    0.13889   0.52778   0.22620   0.00000  Uiso   1.00
Cu508  Cu    0.13889   0.61111   0.22620   0.00000  Uiso   1.00
Zn509  Zn    0.22222   0.61111   0.22620   0.00000  Uiso   1.00
Cu510  Cu    0.22222   0.52778   0.22620   0.00000  Uiso   1.00
Cu511  Cu    0.30556   0.52778   0.22620   0.00000  Uiso   1.00
Cu512  Cu    0.30556   0.61111   0.22620   0.00000  Uiso   1.00
Zn513  Zn    0.38889   0.61111   0.22620   0.00000  Uiso   1.00
Cu514  Cu    0.38889   0.52778   0.22620   0.00000  Uiso   1.00
Cu515  Cu    0.47222   0.52778   0.22620   0.00000  Uiso   1.00
Cu516  Cu    0.47222   0.61111   0.22620   0.00000  Uiso   1.00
Zn517  Zn    0.55556   0.61111   0.22620   0.00000  Uiso   1.00
Cu518  Cu    0.55556   0.52778   0.22620   0.00000  Uiso   1.00
Cu519  Cu    0.63889   0.52778   0.22620   0.00000  Uiso   1.00
Cu520  Cu    0.63889   0.61111   0.22620   0.00000  Uiso   1.00
Zn521  Zn    0.72222   0.61111   0.22620   0.00000  Uiso   1.00
Cu522  Cu    0.72222   0.52778   0.22620   0.00000  Uiso   1.00
Cu523  Cu    0.80556   0.52778   0.22620   0.00000  Uiso   1.00
Cu524  Cu    0.80556   0.61111   0.22620   0.00000  Uiso   1.00
Zn525  Zn    0.88889   0.61111   0.22620   0.00000  Uiso   1.00
Cu526  Cu    0.88889   0.52778   0.22620   0.00000  Uiso   1.00
Cu527  Cu    0.97222   0.52778   0.22620   0.00000  Uiso   1.00
Cu528  Cu    0.97222   0.61111   0.22620   0.00000  Uiso   1.00
Zn529  Zn    0.05556   0.77778   0.22620   0.00000  Uiso   1.00
Cu530  Cu    0.05556   0.69444   0.22620   0.00000  Uiso   1.00
Cu531  Cu    0.13889   0.69444   0.22620   0.00000  Uiso   1.00
Cu532  Cu    0.13889   0.77778   0.22620   0.00000  Uiso   1.00
Zn533  Zn    0.22222   0.77778   0.22620   0.00000  Uiso   1.00
Cu534  Cu    0.22222   0.69444   0.22620   0.00000  Uiso   1.00
Cu535  Cu    0.30556   0.69444   0.22620   0.00000  Uiso   1.00
Cu536  Cu    0.30556   0.77778   0.22620   0.00000  Uiso   1.00
Zn537  Zn    0.38889   0.77778   0.22620   0.00000  Uiso   1.00
Cu538  Cu    0.38889   0.69444   0.22620   0.00000  Uiso   1.00
Cu539  Cu    0.47222   0.69444   0.22620   0.00000  Uiso   1.00
Cu540  Cu    0.47222   0.77778   0.22620   0.00000  Uiso   1.00
Zn541  Zn    0.55556   0.77778   0.22620   0.00000  Uiso   1.00
Cu542  Cu    0.55556   0.69444   0.22620   0.00000  Uiso   1.00
Cu543  Cu    0.63889   0.69444   0.22620   0.00000  Uiso   1.00
Cu544  Cu    0.63889   0.77778   0.22620   0.00000  Uiso   1.00
Zn545  Zn    0.72222   0.77778   0.22620   0.00000  Uiso   1.00
Cu546  Cu    0.72222   0.69444   0.22620   0.00000  Uiso   1.00
Cu547  Cu    0.80556   0.69444   0.22620   0.00000  Uiso   1.00
Cu548  Cu    0.80556   0.77778   0.22620   0.00000  Uiso   1.00
Zn549  Zn    0.88889   0.77778   0.22620   0.00000  Uiso   1.00
Cu550  Cu    0.88889   0.69444   0.22620   0.00000  Uiso   1.00
Cu551  Cu    0.97222   0.69444   0.22620   0.00000  Uiso   1.00
Cu552  Cu    0.97222   0.77778   0.22620   0.00000  Uiso   1.00
Zn553  Zn    0.05556   0.94444   0.22620   0.00000  Uiso   1.00
Cu554  Cu    0.05556   0.86111   0.22620   0.00000  Uiso   1.00
Cu555  Cu    0.13889   0.86111   0.22620   0.00000  Uiso   1.00
Cu556  Cu    0.13889   0.94444   0.22620   0.00000  Uiso   1.00
Zn557  Zn    0.22222   0.94444   0.22620   0.00000  Uiso   1.00
Cu558  Cu    0.22222   0.86111   0.22620   0.00000  Uiso   1.00
Cu559  Cu    0.30556   0.86111   0.22620   0.00000  Uiso   1.00
Cu560  Cu    0.30556   0.94444   0.22620   0.00000  Uiso   1.00
Zn561  Zn    0.38889   0.94444   0.22620   0.00000  Uiso   1.00
Cu562  Cu    0.38889   0.86111   0.22620   0.00000  Uiso   1.00
Cu563  Cu    0.47222   0.86111   0.22620   0.00000  Uiso   1.00
Cu564  Cu    0.47222   0.94444   0.22620   0.00000  Uiso   1.00
Zn565  Zn    0.55556   0.94444   0.22620   0.00000  Uiso   1.00
Cu566  Cu    0.55556   0.86111   0.22620   0.00000  Uiso   1.00
Cu567  Cu    0.63889   0.86111   0.22620   0.00000  Uiso   1.00
Cu568  Cu    0.63889   0.94444   0.22620   0.00000  Uiso   1.00
Zn569  Zn    0.72222   0.94444   0.22620   0.00000  Uiso   1.00
Cu570  Cu    0.72222   0.86111   0.22620   0.00000  Uiso   1.00
Cu571  Cu    0.80556   0.86111   0.22620   0.00000  Uiso   1.00
Cu572  Cu    0.80556   0.94444   0.22620   0.00000  Uiso   1.00
Zn573  Zn    0.88889   0.94444   0.22620   0.00000  Uiso   1.00
Cu574  Cu    0.88889   0.86111   0.22620   0.00000  Uiso   1.00
Cu575  Cu    0.97222   0.86111   0.22620   0.00000  Uiso   1.00
Cu576  Cu    0.97222   0.94444   0.22620   0.00000  Uiso   1.00
Zn577  Zn    0.16678   0.33335   0.28830   0.00000  Uiso   1.00
Cu578  Cu    0.91344   0.49968   0.28803   0.00000  Uiso   1.00
Cu579  Cu    0.49265   0.40951   0.28329   0.00000  Uiso   1.00
Cu580  Cu    0.41703   0.58349   0.28701   0.00000  Uiso   1.00
Zn581  Zn    0.83113   0.32952   0.28685   0.00000  Uiso   1.00
Cu582  Cu    0.07817   0.82944   0.28772   0.00000  Uiso   1.00
Cu583  Cu    0.91181   0.24533   0.28622   0.00000  Uiso   1.00
Cu584  Cu    0.83317   0.08527   0.29082   0.00000  Uiso   1.00
Cu585  Cu    0.83251   0.58342   0.28331   0.00000  Uiso   1.00
Zn586  Zn    1.00384   0.66975   0.28540   0.00000  Uiso   1.00
Cu587  Cu   -0.00104   0.08504   0.28663   0.00000  Uiso   1.00
Cu588  Cu    0.74946   0.24854   0.28482   0.00000  Uiso   1.00
Cu589  Cu    0.49756   0.08737   0.28219   0.00000  Uiso   1.00
Cu590  Cu    0.41451   0.16315   0.28707   0.00000  Uiso   1.00
Cu591  Cu    0.08019   0.50078   0.28355   0.00000  Uiso   1.00
Zn592  Zn    0.49503   0.32777   0.29067   0.00000  Uiso   1.00
Cu593  Cu    0.33214   0.41711   0.28474   0.00000  Uiso   1.00
Zn594  Zn    0.33170   0.16726   0.28638   0.00000  Uiso   1.00
Cu595  Cu    0.50375   0.75454   0.28205   0.00000  Uiso   1.00
Cu596  Cu    0.49973   0.58176   0.28485   0.00000  Uiso   1.00
Cu597  Cu    0.74750   0.32932   0.28590   0.00000  Uiso   1.00
Cu598  Cu    0.91847   0.66814   0.28467   0.00000  Uiso   1.00
Cu599  Cu    0.32427   0.24487   0.28995   0.00000  Uiso   1.00
Cu600  Cu    0.50156   0.92343   0.28259   0.00000  Uiso   1.00
Zn601  Zn    0.16607   0.82888   0.28773   0.00000  Uiso   1.00
Cu602  Cu    0.24508   0.49783   0.28836   0.00000  Uiso   1.00
Zn603  Zn    0.49617   0.49905   0.28348   0.00000  Uiso   1.00
Cu604  Cu    0.91230   0.41064   0.28721   0.00000  Uiso   1.00
Cu605  Cu    0.24585   0.99916   0.28625   0.00000  Uiso   1.00
Cu606  Cu    0.74834   0.41305   0.28712   0.00000  Uiso   1.00
Cu607  Cu    0.75523   0.92023   0.28658   0.00000  Uiso   1.00
Cu608  Cu    0.25389   0.42116   0.28419   0.00000  Uiso   1.00
Cu609  Cu    0.49680   0.24714   0.28736   0.00000  Uiso   1.00
Cu610  Cu    0.91852   0.08419   0.28500   0.00000  Uiso   1.00
Cu611  Cu    0.41040   0.32804   0.28727   0.00000  Uiso   1.00
Cu612  Cu    0.08144   0.41732   0.28541   0.00000  Uiso   1.00
Cu613  Cu    0.32812   0.91460   0.28758   0.00000  Uiso   1.00
Cu614  Cu    0.83193   0.41256   0.28569   0.00000  Uiso   1.00
Cu615  Cu    0.83576   0.25011   0.28323   0.00000  Uiso   1.00
Cu616  Cu    0.91987   0.59037   0.29087   0.00000  Uiso   1.00
Cu617  Cu    0.91985   0.75165   0.28400   0.00000  Uiso   1.00
Cu618  Cu    0.08254  -0.00217   0.28246   0.00000  Uiso   1.00
Zn619  Zn    0.50512   0.83793   0.28586   0.00000  Uiso   1.00
Cu620  Cu    0.91850   0.00023   0.28330   0.00000  Uiso   1.00
Zn621  Zn    0.83496   1.00305   0.28706   0.00000  Uiso   1.00
Cu622  Cu    0.92142   0.91696   0.28369   0.00000  Uiso   1.00
Cu623  Cu    0.75080   0.75124   0.28427   0.00000  Uiso   1.00
Cu624  Cu    0.41748   0.91827   0.28529   0.00000  Uiso   1.00
Zn625  Zn    0.83617   0.16386   0.28774   0.00000  Uiso   1.00
Cu626  Cu    0.91656   0.82812   0.28701   0.00000  Uiso   1.00
Cu627  Cu    0.08449   0.91618   0.27870   0.00000  Uiso   1.00
Zn628  Zn    0.16507   0.49844   0.28256   0.00000  Uiso   1.00
Cu629  Cu    0.75087   0.49813   0.28746   0.00000  Uiso   1.00
Cu630  Cu    0.99575   0.24565   0.28566   0.00000  Uiso   1.00
Zn631  Zn    0.16472   0.99485   0.28743   0.00000  Uiso   1.00
Zn632  Zn    0.49691   0.16752   0.28531   0.00000  Uiso   1.00
Cu633  Cu    0.41552   0.07728   0.28850   0.00000  Uiso   1.00
Cu634  Cu    0.16186   0.91254   0.28637   0.00000  Uiso   1.00
Zn635  Zn   -0.00565   0.49664   0.28427   0.00000  Uiso   1.00
Cu636  Cu    0.42218   0.75379   0.28463   0.00000  Uiso   1.00
Cu637  Cu    0.66371   0.25111   0.28621   0.00000  Uiso   1.00
Cu638  Cu   -0.00370   0.58568   0.28491   0.00000  Uiso   1.00
Cu639  Cu    0.08184   0.74797   0.28815   0.00000  Uiso   1.00
Cu640  Cu    0.16460   0.25224   0.28968   0.00000  Uiso   1.00
Cu641  Cu    0.16498   0.41790   0.28610   0.00000  Uiso   1.00
Cu642  Cu    0.66864   0.08591   0.29237   0.00000  Uiso   1.00
Zn643  Zn    0.16504   0.16805   0.28365   0.00000  Uiso   1.00
Cu644  Cu    0.66379   0.41559   0.28418   0.00000  Uiso   1.00
Cu645  Cu   -0.00401   0.41287   0.28569   0.00000  Uiso   1.00
Cu646  Cu    0.00066   0.74910   0.28483   0.00000  Uiso   1.00
Cu647  Cu    0.66326   0.57738   0.28563   0.00000  Uiso   1.00
Cu648  Cu    0.40976   0.99754   0.29068   0.00000  Uiso   1.00
Cu649  Cu    0.33711   0.75489   0.29012   0.00000  Uiso   1.00
Cu650  Cu    0.58651   0.92449   0.29114   0.00000  Uiso   1.00
Zn651  Zn    0.66305   0.17060   0.29120   0.00000  Uiso   1.00
Zn652  Zn    0.83431   0.66822   0.28384   0.00000  Uiso   1.00
Cu653  Cu    0.24582   0.58710   0.28662   0.00000  Uiso   1.00
Cu654  Cu    0.75409   0.16684   0.28751   0.00000  Uiso   1.00
Zn655  Zn    0.99896   1.00024   0.28519   0.00000  Uiso   1.00
Cu656  Cu    0.83852   0.92243   0.28787   0.00000  Uiso   1.00
Cu657  Cu    0.08290   0.25478   0.28584   0.00000  Uiso   1.00
Cu658  Cu    0.07814   0.08134   0.29086   0.00000  Uiso   1.00
Zn659  Zn    0.83802   0.84063   0.28650   0.00000  Uiso   1.00
Cu660  Cu    0.91606   0.16651   0.28272   0.00000  Uiso   1.00
Cu661  Cu    0.07786   0.57928   0.28804   0.00000  Uiso   1.00
Zn662  Zn    0.83861   0.50374   0.28618   0.00000  Uiso   1.00
Cu663  Cu    0.42082   0.83937   0.28622   0.00000  Uiso   1.00
Cu664  Cu    0.41334   0.41318   0.28004   0.00000  Uiso   1.00
Cu665  Cu    0.58775   0.75349   0.28717   0.00000  Uiso   1.00
Zn666  Zn    0.33256   0.83402   0.28843   0.00000  Uiso   1.00
Cu667  Cu    0.24814   0.08256   0.28672   0.00000  Uiso   1.00
Cu668  Cu    0.75480   0.08878   0.28772   0.00000  Uiso   1.00
Zn669  Zn    0.49719   0.00372   0.29180   0.00000  Uiso   1.00
Zn670  Zn    0.32628   0.99512   0.28911   0.00000  Uiso   1.00
Cu671  Cu    0.67319   0.75163   0.28416   0.00000  Uiso   1.00
Zn672  Zn    0.50655   0.67067   0.28568   0.00000  Uiso   1.00
Zn673  Zn    0.66485   0.49784   0.28451   0.00000  Uiso   1.00
Cu674  Cu    0.58505   0.83223   0.28899   0.00000  Uiso   1.00
Zn675  Zn    0.32738   0.32812   0.28447   0.00000  Uiso   1.00
Cu676  Cu    0.25394   0.67077   0.28513   0.00000  Uiso   1.00
Zn677  Zn    1.00073   0.33260   0.29060   0.00000  Uiso   1.00
Cu678  Cu    0.58010   0.41622   0.28655   0.00000  Uiso   1.00
Zn679  Zn    0.66867   0.00602   0.28519   0.00000  Uiso   1.00
Zn680  Zn    0.99846   0.83290   0.28406   0.00000  Uiso   1.00
Cu681  Cu    0.58107   0.08025   0.28637   0.00000  Uiso   1.00
Cu682  Cu    0.58402   0.00216   0.28882   0.00000  Uiso   1.00
Cu683  Cu    0.82692   0.74547   0.28386   0.00000  Uiso   1.00
Cu684  Cu    0.08684   0.16924   0.28351   0.00000  Uiso   1.00
Cu685  Cu    0.75538   0.58323   0.28499   0.00000  Uiso   1.00
Cu686  Cu    0.24608   0.83125   0.28530   0.00000  Uiso   1.00
Zn687  Zn    0.66154   0.33266   0.29045   0.00000  Uiso   1.00
Cu688  Cu    0.16463   0.74754   0.29344   0.00000  Uiso   1.00
Cu689  Cu    0.24550   0.91594   0.28651   0.00000  Uiso   1.00
Zn690  Zn    0.67428   0.84093   0.28649   0.00000  Uiso   1.00
Cu691  Cu    0.57974   0.24992   0.28769   0.00000  Uiso   1.00
Cu692  Cu    0.00226   0.91826   0.28650   0.00000  Uiso   1.00
Zn693  Zn    0.33234   0.50492   0.28620   0.00000  Uiso   1.00
Cu694  Cu    0.58102   0.66236   0.28663   0.00000  Uiso   1.00
Zn695  Zn    0.16510   0.66519   0.29307   0.00000  Uiso   1.00
Cu696  Cu    0.66605   0.91605   0.28703   0.00000  Uiso   1.00
Cu697  Cu    0.24668   0.25293   0.28655   0.00000  Uiso   1.00
Cu698  Cu    0.24431   0.16246   0.28686   0.00000  Uiso   1.00
Zn699  Zn    0.66781   0.66025   0.28692   0.00000  Uiso   1.00
Cu700  Cu    0.16259   0.58292   0.28666   0.00000  Uiso   1.00
Cu701  Cu    0.42362   0.66899   0.28557   0.00000  Uiso   1.00
Cu702  Cu    0.75933   0.84135   0.28510   0.00000  Uiso   1.00
Cu703  Cu    0.07675   0.33002   0.28916   0.00000  Uiso   1.00
Cu704  Cu    0.32974   0.08285   0.28568   0.00000  Uiso   1.00
Cu705  Cu    0.33129   0.58403   0.28960   0.00000  Uiso   1.00
Cu706  Cu    0.74862   0.66363   0.28009   0.00000  Uiso   1.00
Cu707  Cu    0.41617   0.50274   0.28104   0.00000  Uiso   1.00
Cu708  Cu    0.58754   0.58735   0.28269   0.00000  Uiso   1.00
Cu709  Cu    0.91881   0.33075   0.28472   0.00000  Uiso   1.00
Cu710  Cu    0.57853   0.49868   0.28664   0.00000  Uiso   1.00
Cu711  Cu    0.16360   0.08359   0.28764   0.00000  Uiso   1.00
Cu712  Cu    0.24910   0.33566   0.28324   0.00000  Uiso   1.00
Zn713  Zn    0.33418   0.67244   0.28635   0.00000  Uiso   1.00
Cu714  Cu    0.75158   0.00336   0.28633   0.00000  Uiso   1.00
Zn715  Zn    1.00044   0.16892   0.28766   0.00000  Uiso   1.00
Cu716  Cu    0.41632   0.24702   0.28889   0.00000  Uiso   1.00
Cu717  Cu    0.57866   0.16706   0.28574   0.00000  Uiso   1.00
Cu718  Cu    0.58255   0.33424   0.28730   0.00000  Uiso   1.00
Cu719  Cu    0.24610   0.75092   0.28801   0.00000  Uiso   1.00
Cu720  Cu    0.08095   0.66432   0.28461   0.00000  Uiso   1.00
Cu721  Cu    0.72793   0.27790   0.34222   0.00000  Uiso   1.00
Cu722  Cu    0.92373   0.54410   0.35022   0.00000  Uiso   1.00
Cu723  Cu    0.35424   0.96958   0.34883   0.00000  Uiso   1.00
Cu724  Cu    0.73152   0.11737   0.34698   0.00000  Uiso   1.00
Zn725  Zn    0.45020   0.89280   0.34640   0.00000  Uiso   1.00
Cu726  Cu    0.26636   0.46779   0.34905   0.00000  Uiso   1.00
Cu727  Cu    0.35651   0.47289   0.34153   0.00000  Uiso   1.00
Cu728  Cu    0.73390   0.77809   0.34283   0.00000  Uiso   1.00
Cu729  Cu    0.44974   0.80758   0.34155   0.00000  Uiso   1.00
Cu730  Cu    0.73707   0.69784   0.34219   0.00000  Uiso   1.00
Zn731  Zn    0.44901   0.06000   0.35097   0.00000  Uiso   1.00
Cu732  Cu    0.36394   0.13965   0.34316   0.00000  Uiso   1.00
Cu733  Cu    0.90732   0.69629   0.34468   0.00000  Uiso   1.00
Cu734  Cu    0.90628   0.28594   0.34692   0.00000  Uiso   1.00
Cu735  Cu    0.17882   0.38044   0.34878   0.00000  Uiso   1.00
Cu736  Cu    0.44594   0.97502   0.34452   0.00000  Uiso   1.00
Cu737  Cu    0.17726   0.46418   0.34855   0.00000  Uiso   1.00
Cu738  Cu    0.81640   0.28475   0.34262   0.00000  Uiso   1.00
Cu739  Cu    0.91273   0.78921   0.34770   0.00000  Uiso   1.00
Cu740  Cu    0.82325   0.20638   0.34579   0.00000  Uiso   1.00
Zn741  Zn    0.99941   0.87225   0.35172   0.00000  Uiso   1.00
Cu742  Cu    0.54758   0.18974   0.34702   0.00000  Uiso   1.00
Cu743  Cu    0.81254   0.03188   0.34652   0.00000  Uiso   1.00
Cu744  Cu    0.63725   0.11409   0.34691   0.00000  Uiso   1.00
Cu745  Cu    0.44248   0.31023   0.34597   0.00000  Uiso   1.00
Zn746  Zn    0.26885   0.38663   0.34746   0.00000  Uiso   1.00
Zn747  Zn    0.43893   0.39193   0.34174   0.00000  Uiso   1.00
Zn748  Zn    0.44965   0.72646   0.34085   0.00000  Uiso   1.00
Cu749  Cu    0.08274   0.45578   0.34712   0.00000  Uiso   1.00
Cu750  Cu    0.36487   0.72914   0.34673   0.00000  Uiso   1.00
Cu751  Cu    0.08396   0.87454   0.34364   0.00000  Uiso   1.00
Cu752  Cu    0.54997   0.94021   0.34847   0.00000  Uiso   1.00
Cu753  Cu    0.17925   0.29898   0.35042   0.00000  Uiso   1.00
Cu754  Cu    0.64203   0.69888   0.34102   0.00000  Uiso   1.00
Cu755  Cu    0.73073   0.19838   0.34426   0.00000  Uiso   1.00
Cu756  Cu    0.90686   0.61255   0.35225   0.00000  Uiso   1.00
Cu757  Cu    0.99749   0.78624   0.34428   0.00000  Uiso   1.00
Cu758  Cu    0.82064   0.79130   0.34564   0.00000  Uiso   1.00
Cu759  Cu    0.18239   0.80107   0.35170   0.00000  Uiso   1.00
Cu760  Cu    0.54363   0.43659   0.33946   0.00000  Uiso   1.00
Cu761  Cu    0.72789   0.44655   0.35093   0.00000  Uiso   1.00
Cu762  Cu    0.73488   0.36499   0.34451   0.00000  Uiso   1.00
Cu763  Cu    0.35374   0.30697   0.34387   0.00000  Uiso   1.00
Zn764  Zn    0.44993   0.56076   0.34337   0.00000  Uiso   1.00
Cu765  Cu    0.73519   0.86889   0.34441   0.00000  Uiso   1.00
Cu766  Cu    0.35505   0.05347   0.34569   0.00000  Uiso   1.00
Cu767  Cu    0.99145   0.36412   0.34939   0.00000  Uiso   1.00
Cu768  Cu    0.18356   0.22038   0.34565   0.00000  Uiso   1.00
Cu769  Cu    0.64206   0.03086   0.34929   0.00000  Uiso   1.00
Cu770  Cu    0.82387   0.95803   0.34341   0.00000  Uiso   1.00
Cu771  Cu    0.90688   0.12539   0.34502   0.00000  Uiso   1.00
Cu772  Cu    1.00211   0.20896   0.34921   0.00000  Uiso   1.00
Cu773  Cu    0.54343   0.68646   0.34738   0.00000  Uiso   1.00
Cu774  Cu    0.99970   0.12643   0.34737   0.00000  Uiso   1.00
Cu775  Cu    0.91398   0.96131   0.34323   0.00000  Uiso   1.00
Zn776  Zn    0.81455   0.53556   0.34507   0.00000  Uiso   1.00
Cu777  Cu    0.63660   0.52411   0.34435   0.00000  Uiso   1.00
Cu778  Cu    0.36025   0.88956   0.34537   0.00000  Uiso   1.00
Zn779  Zn    0.09733   0.54807   0.34897   0.00000  Uiso   1.00
Cu780  Cu    0.00136   0.29021   0.34996   0.00000  Uiso   1.00
Zn781  Zn    0.99681   0.70323   0.34983   0.00000  Uiso   1.00
Cu782  Cu    0.63731   0.28018   0.34709   0.00000  Uiso   1.00
Zn783  Zn    0.91236   0.20773   0.35014   0.00000  Uiso   1.00
Cu784  Cu    0.81642   0.61686   0.34423   0.00000  Uiso   1.00
Cu785  Cu    0.35975   0.22374   0.34694   0.00000  Uiso   1.00
Cu786  Cu    0.08853   0.29502   0.34741   0.00000  Uiso   1.00
Zn787  Zn    0.63585   0.60668   0.34621   0.00000  Uiso   1.00
Cu788  Cu    0.54580   0.10384   0.34388   0.00000  Uiso   1.00
Cu789  Cu    0.44888   0.64586   0.34490   0.00000  Uiso   1.00
Cu790  Cu    0.44647   0.13938   0.34457   0.00000  Uiso   1.00
Cu791  Cu    0.44275   0.47740   0.33986   0.00000  Uiso   1.00
Zn792  Zn    0.99380   0.44991   0.34501   0.00000  Uiso   1.00
Zn793  Zn    0.81906   0.36918   0.34798   0.00000  Uiso   1.00
Cu794  Cu    0.64580   0.86422   0.34378   0.00000  Uiso   1.00
Cu795  Cu    0.00148   0.95855   0.34391   0.00000  Uiso   1.00
Cu796  Cu    0.26877   0.13641   0.34626   0.00000  Uiso   1.00
Cu797  Cu    0.35528   0.39288   0.34216   0.00000  Uiso   1.00
Cu798  Cu    0.09950   0.80100   0.34644   0.00000  Uiso   1.00
Zn799  Zn    0.44593   0.22193   0.34762   0.00000  Uiso   1.00
Cu800  Cu    0.09554   0.62999   0.34391   0.00000  Uiso   1.00
Zn801  Zn    0.27274   0.55309   0.34719   0.00000  Uiso   1.00
Cu802  Cu    0.35340   0.55325   0.34961   0.00000  Uiso   1.00
Cu803  Cu    0.54422   0.02185   0.35212   0.00000  Uiso   1.00
Zn804  Zn    0.09397   0.37968   0.34665   0.00000  Uiso   1.00
Cu805  Cu    0.36346   0.81237   0.34913   0.00000  Uiso   1.00
Zn806  Zn    0.27134   0.21941   0.34716   0.00000  Uiso   1.00
Cu807  Cu    0.27260   0.80557   0.34791   0.00000  Uiso   1.00
Cu808  Cu    0.72772   0.02908   0.34433   0.00000  Uiso   1.00
Cu809  Cu    0.54918   0.85451   0.34535   0.00000  Uiso   1.00
Cu810  Cu    0.81818   0.12153   0.34848   0.00000  Uiso   1.00
Cu811  Cu    0.18449   0.14249   0.34445   0.00000  Uiso   1.00
Cu812  Cu    0.91011   0.45529   0.34399   0.00000  Uiso   1.00
Cu813  Cu    0.54405   0.60694   0.34194   0.00000  Uiso   1.00
Cu814  Cu    0.26561   0.30221   0.34348   0.00000  Uiso   1.00
Zn815  Zn    0.63895   0.94362   0.34579   0.00000  Uiso   1.00
Zn816  Zn    0.91248   0.04267   0.34712   0.00000  Uiso   1.00
Zn817  Zn    0.08909   0.21164   0.34173   0.00000  Uiso   1.00
Zn818  Zn    0.26677   0.88561   0.34214   0.00000  Uiso   1.00
Cu819  Cu    0.09283   0.12924   0.34328   0.00000  Uiso   1.00
Cu820  Cu    0.27169   0.97130   0.35053   0.00000  Uiso   1.00
Cu821  Cu    0.72869   0.94718   0.34435   0.00000  Uiso   1.00
Cu822  Cu    0.36340   0.63840   0.34746   0.00000  Uiso   1.00
Zn823  Zn    0.27452   0.72216   0.35046   0.00000  Uiso   1.00
Cu824  Cu    0.18037   0.05032   0.34956   0.00000  Uiso   1.00
Cu825  Cu    0.82367   0.45447   0.34557   0.00000  Uiso   1.00
Cu826  Cu    0.54634   0.27250   0.34558   0.00000  Uiso   1.00
Cu827  Cu    0.27948   0.63838   0.34505   0.00000  Uiso   1.00
Cu828  Cu    0.90392   0.37079   0.34590   0.00000  Uiso   1.00
Zn829  Zn    0.64780   0.78060   0.34121   0.00000  Uiso   1.00
Cu830  Cu    0.00327   0.62665   0.34460   0.00000  Uiso   1.00
Cu831  Cu    0.90994   0.86856   0.34374   0.00000  Uiso   1.00
Cu832  Cu    0.00763   0.04443   0.34696   0.00000  Uiso   1.00
Cu833  Cu    0.18034   0.96214   0.34273   0.00000  Uiso   1.00
Zn834  Zn    0.63686   0.44341   0.34429   0.00000  Uiso   1.00
Cu835  Cu    0.54814   0.76900   0.34435   0.00000  Uiso   1.00
Cu836  Cu    0.08944   0.96269   0.34347   0.00000  Uiso   1.00
Cu837  Cu    0.72323   0.60861   0.34429   0.00000  Uiso   1.00
Cu838  Cu    0.62722   0.19496   0.34963   0.00000  Uiso   1.00
Zn839  Zn    0.26496   0.05047   0.34831   0.00000  Uiso   1.00
Zn840  Zn    0.82448   0.70530   0.34636   0.00000  Uiso   1.00
Cu841  Cu    0.19235   0.63507   0.34888   0.00000  Uiso   1.00
Zn842  Zn    0.82354   0.87447   0.34909   0.00000  Uiso   1.00
Zn843  Zn    0.09131   0.71285   0.34638   0.00000  Uiso   1.00
Cu844  Cu    0.18307   0.71565   0.35185   0.00000  Uiso   1.00
Zn845  Zn    1.00561   0.54361   0.34646   0.00000  Uiso   1.00
Cu846  Cu    0.17877   0.88109   0.34549   0.00000  Uiso   1.00
Cu847  Cu    0.63819   0.36319   0.35024   0.00000  Uiso   1.00
Zn848  Zn    0.09165   0.04732   0.34571   0.00000  Uiso   1.00
Cu849  Cu    0.72167   0.52576   0.34318   0.00000  Uiso   1.00
Cu850  Cu    0.54511   0.35856   0.34668   0.00000  Uiso   1.00
Cu851  Cu    0.18550   0.55154   0.34434   0.00000  Uiso   1.00
Cu852  Cu    0.55037   0.52517   0.34746   0.00000  Uiso   1.00
Cu853  Cu    0.49065   0.03533   0.40134   0.00000  Uiso   1.00
Cu854  Cu    0.48495   0.78713   0.40031   0.00000  Uiso   1.00
Cu855  Cu    0.76267   0.74880   0.40168   0.00000  Uiso   1.00
Cu856  Cu    0.49246   0.95535   0.40117   0.00000  Uiso   1.00
Cu857  Cu    0.94015   0.84161   0.40615   0.00000  Uiso   1.00
Cu858  Cu    0.40121   0.94918   0.40201   0.00000  Uiso   1.00
Cu859  Cu    0.48080   0.45772   0.39331   0.00000  Uiso   1.00
Cu860  Cu    0.48607   0.37722   0.39621   0.00000  Uiso   1.00
Cu861  Cu    0.49239   0.87274   0.39916   0.00000  Uiso   1.00
Cu862  Cu    0.38722   0.02444   0.40385   0.00000  Uiso   1.00
Zn863  Zn    0.67739   0.08687   0.40698   0.00000  Uiso   1.00
Cu864  Cu    0.49494   0.12089   0.40042   0.00000  Uiso   1.00
Cu865  Cu    0.76370   0.25851   0.39979   0.00000  Uiso   1.00
Cu866  Cu    0.49591   0.63002   0.39895   0.00000  Uiso   1.00
Cu867  Cu    0.30153   0.94807   0.40354   0.00000  Uiso   1.00
Zn868  Zn    0.38341   0.44296   0.39846   0.00000  Uiso   1.00
Zn869  Zn    0.76731   0.17560   0.40148   0.00000  Uiso   1.00
Cu870  Cu    0.85794   0.09752   0.40505   0.00000  Uiso   1.00
Cu871  Cu    0.38955   0.35844   0.40224   0.00000  Uiso   1.00
Cu872  Cu    0.94056   0.75801   0.40894   0.00000  Uiso   1.00
Cu873  Cu    0.76678   0.83715   0.39981   0.00000  Uiso   1.00
Cu874  Cu    0.39394   0.11746   0.39900   0.00000  Uiso   1.00
Zn875  Zn    0.57272   0.48555   0.39914   0.00000  Uiso   1.00
Cu876  Cu    0.49499   0.20725   0.39850   0.00000  Uiso   1.00
Cu877  Cu    0.67840   0.33913   0.40370   0.00000  Uiso   1.00
Cu878  Cu    0.84915   0.25900   0.40157   0.00000  Uiso   1.00
Cu879  Cu    0.12650   0.76930   0.40096   0.00000  Uiso   1.00
Cu880  Cu    0.67463   0.66710   0.39955   0.00000  Uiso   1.00
Cu881  Cu    0.94804   0.59794   0.40605   0.00000  Uiso   1.00
Zn882  Zn    0.20835   0.43491   0.40417   0.00000  Uiso   1.00
Cu883  Cu    0.58859   0.82955   0.39868   0.00000  Uiso   1.00
Cu884  Cu    0.03570   0.76327   0.40482   0.00000  Uiso   1.00
Cu885  Cu    0.58849   1.00853   0.40616   0.00000  Uiso   1.00
Cu886  Cu    0.11662   0.43054   0.40403   0.00000  Uiso   1.00
Cu887  Cu    0.94145   0.18288   0.40724   0.00000  Uiso   1.00
Cu888  Cu    0.02408   0.83950   0.40539   0.00000  Uiso   1.00
Cu889  Cu    0.85053   0.67693   0.40470   0.00000  Uiso   1.00
Cu890  Cu    0.49366   0.54615   0.39740   0.00000  Uiso   1.00
Cu891  Cu    0.11791   0.34525   0.40644   0.00000  Uiso   1.00
Cu892  Cu    0.40184   0.61206   0.40368   0.00000  Uiso   1.00
Cu893  Cu    0.39809   0.86799   0.41019   0.00000  Uiso   1.00
Cu894  Cu    0.03694   0.51497   0.40431   0.00000  Uiso   1.00
Cu895  Cu    0.85511   0.01182   0.40276   0.00000  Uiso   1.00
Cu896  Cu    0.94180   0.42859   0.40055   0.00000  Uiso   1.00
Cu897  Cu    0.30824   0.86705   0.40503   0.00000  Uiso   1.00
Cu898  Cu    0.49192   0.29125   0.39558   0.00000  Uiso   1.00
Zn899  Zn    0.58769   0.09679   0.40321   0.00000  Uiso   1.00
Cu900  Cu    0.20735   0.35324   0.40691   0.00000  Uiso   1.00
Cu901  Cu    0.85352   0.51114   0.40197   0.00000  Uiso   1.00
Cu902  Cu    0.39968   0.78378   0.40734   0.00000  Uiso   1.00
Cu903  Cu    0.30133   0.36112   0.40194   0.00000  Uiso   1.00
Cu904  Cu    0.31015   0.61582   0.40380   0.00000  Uiso   1.00
Cu905  Cu    0.49466   0.70817   0.40090   0.00000  Uiso   1.00
Cu906  Cu    0.12341   0.51426   0.40186   0.00000  Uiso   1.00
Cu907  Cu    0.76141   0.66446   0.40150   0.00000  Uiso   1.00
Cu908  Cu    0.85183   0.34583   0.40230   0.00000  Uiso   1.00
Cu909  Cu    0.02669   0.42929   0.40227   0.00000  Uiso   1.00
Cu910  Cu    0.67569   0.58551   0.40331   0.00000  Uiso   1.00
Cu911  Cu    0.39032   0.19905   0.40543   0.00000  Uiso   1.00
Cu912  Cu    0.30099   0.44696   0.40110   0.00000  Uiso   1.00
Cu913  Cu    0.76046   0.08648   0.40610   0.00000  Uiso   1.00
Cu914  Cu    0.86087   0.93293   0.40384   0.00000  Uiso   1.00
Cu915  Cu    0.02480   0.34412   0.40532   0.00000  Uiso   1.00
Cu916  Cu    0.85326   0.17485   0.40712   0.00000  Uiso   1.00
Cu917  Cu    0.31714   0.70294   0.40384   0.00000  Uiso   1.00
Cu918  Cu    0.58111   0.40713   0.40039   0.00000  Uiso   1.00
Cu919  Cu    0.29609   0.27499   0.40554   0.00000  Uiso   1.00
Zn920  Zn    0.39296   0.28163   0.40400   0.00000  Uiso   1.00
Cu921  Cu    0.30578   0.53019   0.40708   0.00000  Uiso   1.00
Cu922  Cu    0.29854   0.19729   0.40840   0.00000  Uiso   1.00
Cu923  Cu    0.76309   0.33957   0.40543   0.00000  Uiso   1.00
Cu924  Cu    0.21050   0.19447   0.40204   0.00000  Uiso   1.00
Cu925  Cu    0.94166   0.67865   0.40740   0.00000  Uiso   1.00
Cu926  Cu    0.38649   0.52400   0.40159   0.00000  Uiso   1.00
Cu927  Cu    0.02890   0.17752   0.40826   0.00000  Uiso   1.00
Cu928  Cu    0.77004   0.92201   0.39560   0.00000  Uiso   1.00
Zn929  Zn    0.57972   0.21335   0.40990   0.00000  Uiso   1.00
Cu930  Cu    0.84918   0.75631   0.40282   0.00000  Uiso   1.00
Cu931  Cu    0.11970   0.84900   0.40505   0.00000  Uiso   1.00
Cu932  Cu    0.12035   0.26148   0.40508   0.00000  Uiso   1.00
Cu933  Cu    0.03570   0.93211   0.40415   0.00000  Uiso   1.00
Cu934  Cu    0.94143   0.92903   0.40182   0.00000  Uiso   1.00
Cu935  Cu    0.75375   0.57920   0.40159   0.00000  Uiso   1.00
Cu936  Cu    0.94400   0.50873   0.40840   0.00000  Uiso   1.00
Cu937  Cu    0.94429   0.01563   0.40240   0.00000  Uiso   1.00
Cu938  Cu    0.58779   0.74391   0.39798   0.00000  Uiso   1.00
Cu939  Cu    0.59026   0.66077   0.39850   0.00000  Uiso   1.00
Cu940  Cu    0.76664   0.00858   0.40561   0.00000  Uiso   1.00
Zn941  Zn    0.67736   0.25219   0.40126   0.00000  Uiso   1.00
Cu942  Cu    0.75984   0.50334   0.40274   0.00000  Uiso   1.00
Cu943  Cu    0.85463   0.84131   0.40447   0.00000  Uiso   1.00
Cu944  Cu    0.29850   0.02852   0.40463   0.00000  Uiso   1.00
Cu945  Cu    0.11638   0.18078   0.40535   0.00000  Uiso   1.00
Cu946  Cu    0.67663   0.75392   0.40028   0.00000  Uiso   1.00
Cu947  Cu    0.20438   0.02307   0.40447   0.00000  Uiso   1.00
Cu948  Cu    0.22063   0.60917   0.40318   0.00000  Uiso   1.00
Cu949  Cu    0.76351   0.42156   0.40292   0.00000  Uiso   1.00
Cu950  Cu    0.22056   0.86196   0.40737   0.00000  Uiso   1.00
Cu951  Cu    0.85621   0.42774   0.40330   0.00000  Uiso   1.00
Cu952  Cu    0.30115   0.11348   0.40619   0.00000  Uiso   1.00
Cu953  Cu    0.94057   0.26253   0.40480   0.00000  Uiso   1.00
Cu954  Cu    0.02822   0.09780   0.40388   0.00000  Uiso   1.00
Cu955  Cu    0.67388   0.91490   0.40140   0.00000  Uiso   1.00
Cu956  Cu    0.66965   0.49748   0.40217   0.00000  Uiso   1.00
Cu957  Cu    0.21684   0.53066   0.40756   0.00000  Uiso   1.00
Cu958  Cu    0.67234   0.16762   0.40688   0.00000  Uiso   1.00
Cu959  Cu    0.67249  -0.00041   0.40402   0.00000  Uiso   1.00
Cu960  Cu    0.11958   0.10432   0.40481   0.00000  Uiso   1.00
Zn961  Zn    0.02768   0.26071   0.40771   0.00000  Uiso   1.00
Cu962  Cu    0.58779   0.91335   0.40116   0.00000  Uiso   1.00
Cu963  Cu    0.21104   0.93418   0.40355   0.00000  Uiso   1.00
Cu964  Cu    0.66483   0.41349   0.40389   0.00000  Uiso   1.00
Cu965  Cu    0.93493   0.34205   0.40138   0.00000  Uiso   1.00
Cu966  Cu    0.39954   0.69801   0.39735   0.00000  Uiso   1.00
Cu967  Cu    0.31073   0.78171   0.40740   0.00000  Uiso   1.00
Cu968  Cu    0.03173   0.59406   0.40769   0.00000  Uiso   1.00
Zn969  Zn    0.21433   0.27669   0.40823   0.00000  Uiso   1.00
Cu970  Cu    0.22090   0.78096   0.40777   0.00000  Uiso   1.00
Cu971  Cu    0.03065   0.01546   0.40480   0.00000  Uiso   1.00
Cu972  Cu    0.12529   0.02844   0.40496   0.00000  Uiso   1.00
Cu973  Cu    0.85354   0.59310   0.40896   0.00000  Uiso   1.00
Zn974  Zn    0.21517   0.11391   0.40702   0.00000  Uiso   1.00
Cu975  Cu    0.93987   0.09695   0.40408   0.00000  Uiso   1.00
Cu976  Cu    0.12763   0.60898   0.40219   0.00000  Uiso   1.00
Cu977  Cu    0.68014   0.83971   0.39822   0.00000  Uiso   1.00
Cu978  Cu    0.58739   0.31454   0.40280   0.00000  Uiso   1.00
Cu979  Cu    0.58969   0.57936   0.40381   0.00000  Uiso   1.00
Zn980  Zn    0.12185   0.93620   0.40021   0.00000  Uiso   1.00
Cu981  Cu    0.21891   0.69309   0.41075   0.00000  Uiso   1.00
Zn982  Zn    0.13448   0.69439   0.41654   0.00000  Uiso   1.00
Cu983  Cu    0.04239   0.68786   0.41095   0.00000  Uiso   1.00
Zn984  Zn    0.45642   0.99662   0.46514   0.00000  Uiso   1.00
Cu985  Cu    0.53169   0.50973   0.44668   0.00000  Uiso   1.00
Cu986  Cu    0.35944   0.89248   0.46141   0.00000  Uiso   1.00
Zn987  Zn    0.45351   0.90965   0.46132   0.00000  Uiso   1.00
Cu988  Cu    1.00040   0.87709   0.46256   0.00000  Uiso   1.00
Cu989  Cu    0.45005   0.40785   0.45070   0.00000  Uiso   1.00
Cu990  Cu    0.55248   0.68987   0.45679   0.00000  Uiso   1.00
Cu991  Cu    0.27425   0.89560   0.45844   0.00000  Uiso   1.00
Zn992  Zn    0.07958   0.77168   0.46635   0.00000  Uiso   1.00
Zn993  Zn    0.54942   0.76612   0.45214   0.00000  Uiso   1.00
Cu994  Cu    0.54545   0.02981   0.45704   0.00000  Uiso   1.00
Zn995  Zn    0.45754   0.16031   0.46413   0.00000  Uiso   1.00
Cu996  Cu    0.54923   0.94057   0.45536   0.00000  Uiso   1.00
Cu997  Cu    0.26265   0.47058   0.45605   0.00000  Uiso   1.00
Cu998  Cu    0.07810   0.45168   0.45705   0.00000  Uiso   1.00
Cu999  Cu    0.72849   0.11641   0.46331   0.00000  Uiso   1.00
Cu1000 Cu    0.16653   0.46605   0.45652   0.00000  Uiso   1.00
Cu1001 Cu    0.90320   0.69841   0.46154   0.00000  Uiso   1.00
Cu1002 Cu    0.45376   0.57600   0.44782   0.00000  Uiso   1.00
Cu1003 Cu    0.72842   0.36341   0.46289   0.00000  Uiso   1.00
Cu1004 Cu    0.54188   0.42527   0.45643   0.00000  Uiso   1.00
Cu1005 Cu    0.17656   0.38346   0.45944   0.00000  Uiso   1.00
Cu1006 Cu    0.43648   0.48722   0.45049   0.00000  Uiso   1.00
Cu1007 Cu    0.81313   0.60727   0.46190   0.00000  Uiso   1.00
Cu1008 Cu    0.81673   0.28414   0.45850   0.00000  Uiso   1.00
Cu1009 Cu    0.72782   0.28068   0.46051   0.00000  Uiso   1.00
Cu1010 Cu    0.81318   0.52548   0.46422   0.00000  Uiso   1.00
Cu1011 Cu    0.81555   0.19819   0.46175   0.00000  Uiso   1.00
Cu1012 Cu    0.35538   0.38822   0.46133   0.00000  Uiso   1.00
Cu1013 Cu    0.27109   0.39114   0.45725   0.00000  Uiso   1.00
Cu1014 Cu    0.36089   0.97474   0.46444   0.00000  Uiso   1.00
Zn1015 Zn    0.27573   0.97556   0.46417   0.00000  Uiso   1.00
Zn1016 Zn    0.46238   0.82832   0.45919   0.00000  Uiso   1.00
Zn1017 Zn    0.55860   0.85871   0.45951   0.00000  Uiso   1.00
Cu1018 Cu    0.36388   0.22571   0.46366   0.00000  Uiso   1.00
Zn1019 Cu    0.45417   0.23973   0.45425   0.00000  Uiso   1.00
Cu1020 Cu    0.90597   0.36744   0.45796   0.00000  Uiso   1.00
Zn1021 Zn    0.17099   0.87206   0.46519   0.00000  Uiso   1.00
Cu1022 Cu    0.99744   0.61849   0.46347   0.00000  Uiso   1.00
Cu1023 Cu    0.44704   0.06885   0.45225   0.00000  Uiso   1.00
Cu1024 Cu    0.25804   0.21667   0.46306   0.00000  Uiso   1.00
Cu1025 Cu    0.81688   0.94349   0.45601   0.00000  Uiso   1.00
Cu1026 Cu    0.72414   0.69549   0.45738   0.00000  Uiso   1.00
Cu1027 Cu    0.90621   0.03097   0.46182   0.00000  Uiso   1.00
Cu1028 Cu    0.64617   0.61498   0.46025   0.00000  Uiso   1.00
Cu1029 Cu    0.27131   0.29965   0.46126   0.00000  Uiso   1.00
Cu1030 Cu    0.54921   0.34353   0.45645   0.00000  Uiso   1.00
Cu1031 Cu    0.91136   0.20132   0.46258   0.00000  Uiso   1.00
Cu1032 Cu    0.99086   0.78539   0.46519   0.00000  Uiso   1.00
Cu1033 Cu    0.63695   0.02583   0.46508   0.00000  Uiso   1.00
Cu1034 Cu    0.72500   0.02665   0.46287   0.00000  Uiso   1.00
Cu1035 Cu    0.35146   0.47117   0.46076   0.00000  Uiso   1.00
Cu1036 Cu    0.91331   0.95407   0.46549   0.00000  Uiso   1.00
Cu1037 Cu    0.72631   0.19977   0.46346   0.00000  Uiso   1.00
Cu1038 Cu    0.28500   0.56497   0.46528   0.00000  Uiso   1.00
Cu1039 Cu    0.81300   0.44689   0.45857   0.00000  Uiso   1.00
Zn1040 Zn    0.36508   0.14321   0.46112   0.00000  Uiso   1.00
Cu1041 Cu    0.19500   0.56110   0.46951   0.00000  Uiso   1.00
Cu1042 Cu    0.81815   0.36540   0.46096   0.00000  Uiso   1.00
Cu1043 Cu    0.90917   0.53807   0.45670   0.00000  Uiso   1.00
Cu1044 Cu    0.90956   0.45432   0.45908   0.00000  Uiso   1.00
Cu1045 Cu    0.08505   0.28613   0.46518   0.00000  Uiso   1.00
Zn1046 Zn    0.36618   0.65387   0.46031   0.00000  Uiso   1.00
Cu1047 Cu    0.99260   0.45562   0.45733   0.00000  Uiso   1.00
Cu1048 Cu    0.90411   0.27943   0.45935   0.00000  Uiso   1.00
Cu1049 Cu    0.99236   0.70345   0.46329   0.00000  Uiso   1.00
Cu1050 Cu    0.64138   0.85504   0.45735   0.00000  Uiso   1.00
Cu1051 Cu    0.17226   0.21561   0.46253   0.00000  Uiso   1.00
Zn1052 Zn    0.99681   0.11802   0.45961   0.00000  Uiso   1.00
Zn1053 Zn    0.45331   0.74065   0.45672   0.00000  Uiso   1.00
Cu1054 Cu    0.82073   0.11854   0.46065   0.00000  Uiso   1.00
Cu1055 Cu    0.08509   0.37148   0.45729   0.00000  Uiso   1.00
Cu1056 Cu    0.00229   0.20437   0.46386   0.00000  Uiso   1.00
Cu1057 Cu    0.08518   0.12228   0.46489   0.00000  Uiso   1.00
Zn1058 Zn    0.82296   0.78206   0.46764   0.00000  Uiso   1.00
Cu1059 Cu    0.45572   0.32314   0.45999   0.00000  Uiso   1.00
Zn1060 Zn    0.73479   0.86615   0.46154   0.00000  Uiso   1.00
Cu1061 Cu    0.82219   0.86717   0.45735   0.00000  Uiso   1.00
Cu1062 Cu    0.72421   0.52737   0.46338   0.00000  Uiso   1.00
Cu1063 Cu    0.09786   0.54376   0.46641   0.00000  Uiso   1.00
Cu1064 Cu    0.36511   0.31108   0.46315   0.00000  Uiso   1.00
Zn1065 Zn    0.81643   0.69469   0.46115   0.00000  Uiso   1.00
Cu1066 Cu    0.17260   0.13206   0.46447   0.00000  Uiso   1.00
Cu1067 Cu    0.91333   0.86665   0.45972   0.00000  Uiso   1.00
Zn1068 Zn    0.81877   0.02747   0.46422   0.00000  Uiso   1.00
Cu1069 Zn    0.72130   0.44674   0.45524   0.00000  Uiso   1.00
Cu1070 Cu    0.63806   0.69083   0.45826   0.00000  Uiso   1.00
Cu1071 Cu    0.90311   0.11680   0.46379   0.00000  Uiso   1.00
Zn1072 Zn    0.00546   0.54092   0.46579   0.00000  Uiso   1.00
Zn1073 Zn    0.08984   0.87819   0.46349   0.00000  Uiso   1.00
Cu1074 Cu    0.63385   0.52642   0.46073   0.00000  Uiso   1.00
Cu1075 Cu    0.55226   0.60286   0.45740   0.00000  Uiso   1.00
Zn1076 Zn    0.36281   0.06080   0.46419   0.00000  Uiso   1.00
Zn1077 Zn    0.91052   0.78818   0.46985   0.00000  Uiso   1.00
Cu1078 Cu    0.18010   0.63218   0.45972   0.00000  Uiso   1.00
Cu1079 Cu    0.99703   0.28581   0.46570   0.00000  Uiso   1.00
Zn1080 Zn    0.63356   0.35820   0.46451   0.00000  Uiso   1.00
Cu1081 Cu    0.90982   0.61843   0.46112   0.00000  Uiso   1.00
Cu1082 Cu    0.08873   0.62222   0.45837   0.00000  Uiso   1.00
Cu1083 Cu    0.18105   0.30009   0.46672   0.00000  Uiso   1.00
Cu1084 Cu    1.00619   0.03964   0.46340   0.00000  Uiso   1.00
Cu1085 Cu    0.09181   0.04353   0.46407   0.00000  Uiso   1.00
Zn1086 Zn    0.27361   0.06058   0.46359   0.00000  Uiso   1.00
Cu1087 Cu    0.73121   0.94934   0.45887   0.00000  Uiso   1.00
Cu1088 Cu    0.45782   0.65556   0.45928   0.00000  Uiso   1.00
Zn1089 Zn    0.54897   0.12096   0.45783   0.00000  Uiso   1.00
Cu1090 Cu    1.00507   0.96007   0.47012   0.00000  Uiso   1.00
Cu1091 Cu    0.26685   0.13908   0.46853   0.00000  Uiso   1.00
Zn1092 Zn    0.63053   0.44422   0.45614   0.00000  Uiso   1.00
Zn1093 Zn    0.73242   0.78080   0.46251   0.00000  Uiso   1.00
Zn1094 Zn    0.63876   0.94244   0.46794   0.00000  Uiso   1.00
Zn1095 Zn    0.72800   0.61082   0.46199   0.00000  Uiso   1.00
Cu1096 Cu    0.99216   0.36650   0.45781   0.00000  Uiso   1.00
Zn1097 Zn    0.36837   0.56989   0.47042   0.00000  Uiso   1.00
Zn1098 Zn    0.55033   0.25877   0.45819   0.00000  Uiso   1.00
Zn1099 Zn    0.64451   0.77728   0.45664   0.00000  Uiso   1.00
Cu1100 Cu    0.08826   0.20799   0.46540   0.00000  Uiso   1.00
Zn1101 Zn    0.18361   0.05900   0.46673   0.00000  Uiso   1.00
Zn1102 Zn    0.63345   0.11274   0.46745   0.00000  Uiso   1.00
Zn1103 Zn    0.27263   0.64313   0.46016   0.00000  Uiso   1.00
Zn1104 Zn    0.09761   0.96487   0.47716   0.00000  Uiso   1.00
Zn1105 Zn    0.64415   0.28189   0.46954   0.00000  Uiso   1.00
Cu1106 Cu    0.57960   0.54859   0.50126   0.00000  Uiso   1.00
Cu1107 Cu    0.49763   0.53828   0.50118   0.00000  Uiso   1.00
Cu1108 Cu    0.41537   0.53233   0.50765   0.00000  Uiso   1.00
Zn1109 Zn    0.49956   0.45551   0.50408   0.00000  Uiso   1.00
Cu1110 Cu    0.50191   0.62475   0.49945   0.00000  Uiso   1.00
Zn1111 Zn    0.22240   0.49465   0.51258   0.00000  Uiso   1.00
Cu1112 Cu    0.63862   0.20209   0.45720   0.00000  Uiso   1.00
Zn1113 Zn    0.41104   0.36031   0.51839   0.00000  Uiso   1.00
Zn1114 Zn    0.32378   0.25011   0.51578   0.00000  Uiso   1.00
Cu1115 Cu    0.23113   0.41003   0.51482   0.00000  Uiso   1.00
Zn1116 Zn    0.79241   0.40135   0.51764   0.00000  Uiso   1.00
Cu1117 Cu    0.70458   0.05954   0.51453   0.00000  Uiso   1.00
Zn1118 Zn    0.87557   0.97921   0.51549   0.00000  Uiso   1.00
Cu1119 Cu    0.95725   0.47777   0.51732   0.00000  Uiso   1.00
Zn1120 Zn    0.05613   0.06413   0.52157   0.00000  Uiso   1.00
Cu1121 Cu    0.13287   0.41102   0.50974   0.00000  Uiso   1.00
Cu1122 Cu    0.78789   0.22857   0.52022   0.00000  Uiso   1.00
Cu1123 Cu    0.05152   0.31907   0.51882   0.00000  Uiso   1.00
Cu1124 Cu    0.40909   0.44862   0.51419   0.00000  Uiso   1.00
Cu1125 Cu    0.13417   0.15341   0.52254   0.00000  Uiso   1.00
Cu1126 Cu    0.78763   0.14452   0.52344   0.00000  Uiso   1.00
Cu1127 Cu    0.87397   0.22891   0.52189   0.00000  Uiso   1.00
Cu1128 Cu    0.87829   0.48339   0.51226   0.00000  Uiso   1.00
Zn1129 Zn    0.04823   0.40158   0.51995   0.00000  Uiso   1.00
Zn1130 Zn    0.30999   0.49899   0.52072   0.00000  Uiso   1.00
Zn1131 Zn    0.14197   0.50014   0.51508   0.00000  Uiso   1.00
Zn1132 Zn    0.96086   0.30827   0.52083   0.00000  Uiso   1.00
Zn1133 Zn    0.31979   0.41775   0.52216   0.00000  Uiso   1.00
Cu1134 Cu    0.31878   0.33230   0.52004   0.00000  Uiso   1.00
Zn1135 Zn    0.14361   0.24131   0.52965   0.00000  Uiso   1.00
Zn1136 Zn    0.04781   0.48972   0.51666   0.00000  Uiso   1.00
Cu1137 Cu    0.70490   0.14324   0.52334   0.00000  Uiso   1.00
Zn1138 Zn    0.14498   0.32608   0.51768   0.00000  Uiso   1.00
Zn1139 Zn    0.22841   0.23791   0.51997   0.00000  Uiso   1.00
Zn1140 Zn    0.23703   0.33096   0.52849   0.00000  Uiso   1.00
Cu1141 Cu    0.96206   0.22970   0.52280   0.00000  Uiso   1.00
Cu1142 Cu    0.87798   0.06387   0.52177   0.00000  Uiso   1.00
Zn1143 Zn    0.87460   0.31053   0.52086   0.00000  Uiso   1.00
Zn1144 Zn    0.96181   0.39359   0.51273   0.00000  Uiso   1.00
Cu1145 Cu    0.96528   0.14688   0.51638   0.00000  Uiso   1.00
Zn1146 Zn    0.87856   0.14580   0.52261   0.00000  Uiso   1.00
Zn1147 Zn    0.05482   0.23939   0.53059   0.00000  Uiso   1.00
Zn1148 Zn    0.78693   0.30982   0.51791   0.00000  Uiso   1.00
Zn1149 Zn    0.04704   0.15373   0.53193   0.00000  Uiso   1.00
Zn1150 Zn    0.78011   0.05167   0.51443   0.00000  Uiso   1.00
Zn1151 Zn    0.97205   0.06554   0.52728   0.00000  Uiso   1.00
Zn1152 Zn    0.87528   0.39949   0.52227   0.00000  Uiso   1.00
loop_
_geom_bond_atom_site_label_1
_geom_bond_atom_site_label_2
_geom_bond_distance
_geom_bond_site_symmetry_2
_ccdc_geom_bond_type
Zn1    Cu4     2.530   .     S
Zn1    Cu27    2.530   .     S
Zn1    Cu26    2.530   .     S
Zn1    Cu2     2.530   .     S
Zn1    Cu172   2.530   .     S
Zn1    Cu147   2.530   .     S
Zn1    Cu146   2.530   .     S
Cu2    Cu3     2.530   .     S
Cu2    Cu4     2.530   .     S
Cu2    Zn145   2.530   .     S
Cu2    Cu147   2.530   .     S
Cu2    Cu148   2.530   .     S
Cu3    Cu6     2.530   .     S
Cu3    Zn5     2.530   .     S
Cu3    Cu4     2.530   .     S
Cu3    Zn149   2.530   .     S
Cu3    Cu150   2.530   .     S
Cu3    Cu148   2.530   .     S
Cu4    Cu27    2.530   .     S
Cu4    Zn5     2.530   .     S
Cu4    Cu30    2.530   .     S
Cu4    Zn173   2.530   .     S
Cu4    Cu147   2.530   .     S
Cu4    Cu150   2.530   .     S
Zn5    Cu30    2.530   .     S
Zn5    Cu8     2.530   .     S
Zn5    Cu31    2.530   .     S
Zn5    Cu6     2.530   .     S
Zn5    Cu176   2.530   .     S
Zn5    Cu150   2.530   .     S
Zn5    Cu151   2.530   .     S
Cu6    Cu7     2.530   .     S
Cu6    Cu8     2.530   .     S
Cu6    Cu151   2.530   .     S
Cu6    Cu152   2.530   .     S
Cu6    Zn149   2.530   .     S
Cu7    Cu10    2.530   .     S
Cu7    Zn9     2.530   .     S
Cu7    Cu8     2.530   .     S
Cu7    Zn153   2.530   .     S
Cu7    Cu154   2.530   .     S
Cu7    Cu152   2.530   .     S
Cu8    Cu31    2.530   .     S
Cu8    Zn9     2.530   .     S
Cu8    Cu34    2.530   .     S
Cu8    Zn177   2.530   .     S
Cu8    Cu151   2.530   .     S
Cu8    Cu154   2.530   .     S
Zn9    Cu34    2.530   .     S
Zn9    Cu12    2.530   .     S
Zn9    Cu35    2.530   .     S
Zn9    Cu10    2.530   .     S
Zn9    Cu180   2.530   .     S
Zn9    Cu154   2.530   .     S
Zn9    Cu155   2.530   .     S
Cu10   Cu11    2.530   .     S
Cu10   Cu12    2.530   .     S
Cu10   Cu155   2.530   .     S
Cu10   Cu156   2.530   .     S
Cu10   Zn153   2.530   .     S
Cu11   Cu14    2.530   .     S
Cu11   Cu12    2.530   .     S
Cu11   Zn13    2.530   .     S
Cu11   Cu156   2.530   .     S
Cu11   Cu158   2.530   .     S
Cu11   Zn157   2.530   .     S
Cu12   Cu35    2.530   .     S
Cu12   Cu38    2.530   .     S
Cu12   Zn13    2.530   .     S
Cu12   Zn181   2.530   .     S
Cu12   Cu155   2.530   .     S
Cu12   Cu158   2.530   .     S
Zn13   Cu39    2.530   .     S
Zn13   Cu38    2.530   .     S
Zn13   Cu16    2.530   .     S
Zn13   Cu14    2.530   .     S
Zn13   Cu184   2.530   .     S
Zn13   Cu159   2.530   .     S
Zn13   Cu158   2.530   .     S
Cu14   Cu15    2.530   .     S
Cu14   Cu16    2.530   .     S
Cu14   Zn157   2.530   .     S
Cu14   Cu159   2.530   .     S
Cu14   Cu160   2.530   .     S
Cu15   Cu18    2.530   .     S
Cu15   Cu16    2.530   .     S
Cu15   Zn17    2.530   .     S
Cu15   Cu160   2.530   .     S
Cu15   Cu162   2.530   .     S
Cu15   Zn161   2.530   .     S
Cu16   Cu42    2.530   .     S
Cu16   Cu39    2.530   .     S
Cu16   Zn17    2.530   .     S
Cu16   Zn185   2.530   .     S
Cu16   Cu162   2.530   .     S
Cu16   Cu159   2.530   .     S
Zn17   Cu43    2.530   .     S
Zn17   Cu42    2.530   .     S
Zn17   Cu20    2.530   .     S
Zn17   Cu18    2.530   .     S
Zn17   Cu188   2.530   .     S
Zn17   Cu163   2.530   .     S
Zn17   Cu162   2.530   .     S
Cu18   Cu19    2.530   .     S
Cu18   Cu20    2.530   .     S
Cu18   Zn161   2.530   .     S
Cu18   Cu163   2.530   .     S
Cu18   Cu164   2.530   .     S
Cu19   Cu22    2.530   .     S
Cu19   Cu20    2.530   .     S
Cu19   Zn21    2.530   .     S
Cu19   Cu164   2.530   .     S
Cu19   Cu166   2.530   .     S
Cu19   Zn165   2.530   .     S
Cu20   Cu46    2.530   .     S
Cu20   Cu43    2.530   .     S
Cu20   Zn21    2.530   .     S
Cu20   Zn189   2.530   .     S
Cu20   Cu166   2.530   .     S
Cu20   Cu163   2.530   .     S
Zn21   Cu24    2.530   .     S
Zn21   Cu47    2.530   .     S
Zn21   Cu46    2.530   .     S
Zn21   Cu22    2.530   .     S
Zn21   Cu192   2.530   .     S
Zn21   Cu167   2.530   .     S
Zn21   Cu166   2.530   .     S
Cu22   Cu23    2.530   .     S
Cu22   Cu24    2.530   .     S
Cu22   Zn165   2.530   .     S
Cu22   Cu167   2.530   .     S
Cu22   Cu168   2.530   .     S
Cu23   Cu24    2.530   .     S
Cu23   Cu168   2.530   .     S
Cu24   Cu47    2.530   .     S
Cu24   Cu167   2.530   .     S
Zn25   Cu28    2.530   .     S
Zn25   Cu51    2.530   .     S
Zn25   Cu50    2.530   .     S
Zn25   Cu26    2.530   .     S
Zn25   Cu196   2.530   .     S
Zn25   Cu171   2.530   .     S
Zn25   Cu170   2.530   .     S
Cu26   Cu27    2.530   .     S
Cu26   Cu28    2.530   .     S
Cu26   Cu171   2.530   .     S
Cu26   Zn169   2.530   .     S
Cu26   Cu172   2.529   .     S
Cu27   Cu30    2.530   .     S
Cu27   Cu28    2.530   .     S
Cu27   Zn29    2.530   .     S
Cu27   Cu174   2.530   .     S
Cu27   Zn173   2.530   .     S
Cu27   Cu172   2.530   .     S
Cu28   Zn29    2.530   .     S
Cu28   Cu54    2.530   .     S
Cu28   Cu51    2.530   .     S
Cu28   Zn197   2.530   .     S
Cu28   Cu174   2.530   .     S
Cu28   Cu171   2.530   .     S
Zn29   Cu32    2.530   .     S
Zn29   Cu54    2.530   .     S
Zn29   Cu55    2.530   .     S
Zn29   Cu30    2.530   .     S
Zn29   Cu200   2.530   .     S
Zn29   Cu174   2.530   .     S
Zn29   Cu175   2.530   .     S
Cu30   Cu31    2.530   .     S
Cu30   Cu32    2.530   .     S
Cu30   Cu175   2.530   .     S
Cu30   Cu176   2.530   .     S
Cu30   Zn173   2.530   .     S
Cu31   Cu34    2.530   .     S
Cu31   Zn33    2.530   .     S
Cu31   Cu32    2.530   .     S
Cu31   Cu178   2.530   .     S
Cu31   Zn177   2.529   .     S
Cu31   Cu176   2.530   .     S
Cu32   Zn33    2.530   .     S
Cu32   Cu55    2.530   .     S
Cu32   Cu58    2.530   .     S
Cu32   Zn201   2.530   .     S
Cu32   Cu175   2.530   .     S
Cu32   Cu178   2.530   .     S
Zn33   Cu36    2.530   .     S
Zn33   Cu58    2.530   .     S
Zn33   Cu59    2.530   .     S
Zn33   Cu34    2.530   .     S
Zn33   Cu204   2.530   .     S
Zn33   Cu178   2.530   .     S
Zn33   Cu179   2.530   .     S
Cu34   Cu35    2.530   .     S
Cu34   Cu36    2.530   .     S
Cu34   Cu179   2.530   .     S
Cu34   Cu180   2.530   .     S
Cu34   Zn177   2.530   .     S
Cu35   Cu38    2.530   .     S
Cu35   Zn37    2.530   .     S
Cu35   Cu36    2.530   .     S
Cu35   Cu182   2.530   .     S
Cu35   Zn181   2.530   .     S
Cu35   Cu180   2.530   .     S
Cu36   Zn37    2.530   .     S
Cu36   Cu59    2.530   .     S
Cu36   Cu62    2.530   .     S
Cu36   Zn205   2.530   .     S
Cu36   Cu179   2.530   .     S
Cu36   Cu182   2.530   .     S
Zn37   Cu40    2.530   .     S
Zn37   Cu62    2.530   .     S
Zn37   Cu63    2.530   .     S
Zn37   Cu38    2.530   .     S
Zn37   Cu208   2.530   .     S
Zn37   Cu182   2.530   .     S
Zn37   Cu183   2.530   .     S
Cu38   Cu39    2.530   .     S
Cu38   Cu40    2.530   .     S
Cu38   Cu183   2.530   .     S
Cu38   Zn181   2.530   .     S
Cu38   Cu184   2.529   .     S
Cu39   Cu42    2.530   .     S
Cu39   Cu40    2.530   .     S
Cu39   Zn41    2.530   .     S
Cu39   Cu186   2.530   .     S
Cu39   Cu184   2.530   .     S
Cu39   Zn185   2.530   .     S
Cu40   Zn41    2.530   .     S
Cu40   Cu66    2.530   .     S
Cu40   Cu63    2.530   .     S
Cu40   Zn209   2.530   .     S
Cu40   Cu186   2.530   .     S
Cu40   Cu183   2.530   .     S
Zn41   Cu44    2.530   .     S
Zn41   Cu67    2.530   .     S
Zn41   Cu66    2.530   .     S
Zn41   Cu42    2.530   .     S
Zn41   Cu212   2.530   .     S
Zn41   Cu187   2.530   .     S
Zn41   Cu186   2.530   .     S
Cu42   Cu43    2.530   .     S
Cu42   Cu44    2.530   .     S
Cu42   Cu187   2.530   .     S
Cu42   Zn185   2.530   .     S
Cu42   Cu188   2.530   .     S
Cu43   Cu46    2.530   .     S
Cu43   Cu44    2.530   .     S
Cu43   Zn45    2.530   .     S
Cu43   Cu190   2.530   .     S
Cu43   Cu188   2.530   .     S
Cu43   Zn189   2.529   .     S
Cu44   Zn45    2.530   .     S
Cu44   Cu70    2.530   .     S
Cu44   Cu67    2.530   .     S
Cu44   Zn213   2.530   .     S
Cu44   Cu190   2.530   .     S
Cu44   Cu187   2.530   .     S
Zn45   Cu48    2.530   .     S
Zn45   Cu71    2.530   .     S
Zn45   Cu70    2.530   .     S
Zn45   Cu46    2.530   .     S
Zn45   Cu216   2.530   .     S
Zn45   Cu191   2.530   .     S
Zn45   Cu190   2.530   .     S
Cu46   Cu47    2.530   .     S
Cu46   Cu48    2.530   .     S
Cu46   Cu191   2.530   .     S
Cu46   Zn189   2.530   .     S
Cu46   Cu192   2.530   .     S
Cu47   Cu48    2.530   .     S
Cu47   Cu192   2.530   .     S
Cu48   Cu71    2.530   .     S
Cu48   Cu191   2.530   .     S
Zn49   Cu75    2.530   .     S
Zn49   Cu74    2.530   .     S
Zn49   Cu52    2.530   .     S
Zn49   Cu50    2.530   .     S
Zn49   Cu220   2.530   .     S
Zn49   Cu195   2.529   .     S
Zn49   Cu194   2.530   .     S
Cu50   Cu51    2.530   .     S
Cu50   Cu52    2.530   .     S
Cu50   Zn193   2.530   .     S
Cu50   Cu195   2.530   .     S
Cu50   Cu196   2.530   .     S
Cu51   Cu54    2.530   .     S
Cu51   Cu52    2.530   .     S
Cu51   Zn53    2.530   .     S
Cu51   Cu196   2.530   .     S
Cu51   Cu198   2.530   .     S
Cu51   Zn197   2.530   .     S
Cu52   Cu78    2.530   .     S
Cu52   Cu75    2.530   .     S
Cu52   Zn53    2.530   .     S
Cu52   Zn221   2.530   .     S
Cu52   Cu198   2.530   .     S
Cu52   Cu195   2.530   .     S
Zn53   Cu56    2.530   .     S
Zn53   Cu79    2.530   .     S
Zn53   Cu78    2.530   .     S
Zn53   Cu54    2.530   .     S
Zn53   Cu224   2.530   .     S
Zn53   Cu199   2.530   .     S
Zn53   Cu198   2.530   .     S
Cu54   Cu55    2.530   .     S
Cu54   Cu56    2.530   .     S
Cu54   Zn197   2.530   .     S
Cu54   Cu199   2.530   .     S
Cu54   Cu200   2.530   .     S
Cu55   Cu58    2.530   .     S
Cu55   Zn57    2.530   .     S
Cu55   Cu56    2.530   .     S
Cu55   Zn201   2.530   .     S
Cu55   Cu202   2.530   .     S
Cu55   Cu200   2.530   .     S
Cu56   Cu79    2.530   .     S
Cu56   Zn57    2.530   .     S
Cu56   Cu82    2.530   .     S
Cu56   Zn225   2.530   .     S
Cu56   Cu199   2.530   .     S
Cu56   Cu202   2.529   .     S
Zn57   Cu82    2.530   .     S
Zn57   Cu60    2.530   .     S
Zn57   Cu83    2.530   .     S
Zn57   Cu58    2.530   .     S
Zn57   Cu228   2.530   .     S
Zn57   Cu202   2.530   .     S
Zn57   Cu203   2.530   .     S
Cu58   Cu59    2.530   .     S
Cu58   Cu60    2.530   .     S
Cu58   Cu203   2.530   .     S
Cu58   Cu204   2.530   .     S
Cu58   Zn201   2.530   .     S
Cu59   Cu62    2.530   .     S
Cu59   Zn61    2.530   .     S
Cu59   Cu60    2.530   .     S
Cu59   Zn205   2.530   .     S
Cu59   Cu206   2.530   .     S
Cu59   Cu204   2.530   .     S
Cu60   Cu83    2.530   .     S
Cu60   Zn61    2.530   .     S
Cu60   Cu86    2.530   .     S
Cu60   Zn229   2.530   .     S
Cu60   Cu203   2.530   .     S
Cu60   Cu206   2.530   .     S
Zn61   Cu86    2.530   .     S
Zn61   Cu64    2.530   .     S
Zn61   Cu87    2.530   .     S
Zn61   Cu62    2.530   .     S
Zn61   Cu232   2.530   .     S
Zn61   Cu206   2.530   .     S
Zn61   Cu207   2.529   .     S
Cu62   Cu63    2.530   .     S
Cu62   Cu64    2.530   .     S
Cu62   Cu207   2.530   .     S
Cu62   Cu208   2.530   .     S
Cu62   Zn205   2.530   .     S
Cu63   Cu66    2.530   .     S
Cu63   Cu64    2.530   .     S
Cu63   Zn65    2.530   .     S
Cu63   Cu208   2.530   .     S
Cu63   Cu210   2.530   .     S
Cu63   Zn209   2.530   .     S
Cu64   Cu87    2.530   .     S
Cu64   Cu90    2.530   .     S
Cu64   Zn65    2.530   .     S
Cu64   Zn233   2.530   .     S
Cu64   Cu207   2.530   .     S
Cu64   Cu210   2.530   .     S
Zn65   Cu91    2.530   .     S
Zn65   Cu90    2.530   .     S
Zn65   Cu68    2.530   .     S
Zn65   Cu66    2.530   .     S
Zn65   Cu236   2.530   .     S
Zn65   Cu211   2.530   .     S
Zn65   Cu210   2.530   .     S
Cu66   Cu67    2.530   .     S
Cu66   Cu68    2.530   .     S
Cu66   Zn209   2.530   .     S
Cu66   Cu211   2.530   .     S
Cu66   Cu212   2.530   .     S
Cu67   Cu70    2.530   .     S
Cu67   Cu68    2.530   .     S
Cu67   Zn69    2.530   .     S
Cu67   Cu212   2.530   .     S
Cu67   Cu214   2.530   .     S
Cu67   Zn213   2.530   .     S
Cu68   Cu94    2.530   .     S
Cu68   Cu91    2.530   .     S
Cu68   Zn69    2.530   .     S
Cu68   Zn237   2.530   .     S
Cu68   Cu214   2.529   .     S
Cu68   Cu211   2.530   .     S
Zn69   Cu95    2.530   .     S
Zn69   Cu94    2.530   .     S
Zn69   Cu72    2.530   .     S
Zn69   Cu70    2.530   .     S
Zn69   Cu240   2.530   .     S
Zn69   Cu215   2.530   .     S
Zn69   Cu214   2.530   .     S
Cu70   Cu71    2.530   .     S
Cu70   Cu72    2.530   .     S
Cu70   Zn213   2.530   .     S
Cu70   Cu215   2.530   .     S
Cu70   Cu216   2.530   .     S
Cu71   Cu72    2.530   .     S
Cu71   Cu216   2.530   .     S
Cu72   Cu95    2.530   .     S
Cu72   Cu215   2.530   .     S
Zn73   Cu76    2.530   .     S
Zn73   Cu99    2.530   .     S
Zn73   Cu98    2.530   .     S
Zn73   Cu74    2.530   .     S
Zn73   Cu244   2.530   .     S
Zn73   Cu219   2.530   .     S
Zn73   Cu218   2.530   .     S
Cu74   Cu75    2.530   .     S
Cu74   Cu76    2.530   .     S
Cu74   Cu219   2.530   .     S
Cu74   Zn217   2.530   .     S
Cu74   Cu220   2.530   .     S
Cu75   Cu78    2.530   .     S
Cu75   Cu76    2.530   .     S
Cu75   Zn77    2.530   .     S
Cu75   Cu222   2.530   .     S
Cu75   Cu220   2.530   .     S
Cu75   Zn221   2.530   .     S
Cu76   Zn77    2.530   .     S
Cu76   Cu102   2.530   .     S
Cu76   Cu99    2.530   .     S
Cu76   Zn245   2.530   .     S
Cu76   Cu222   2.530   .     S
Cu76   Cu219   2.530   .     S
Zn77   Cu80    2.530   .     S
Zn77   Cu103   2.530   .     S
Zn77   Cu102   2.530   .     S
Zn77   Cu78    2.530   .     S
Zn77   Cu248   2.530   .     S
Zn77   Cu223   2.530   .     S
Zn77   Cu222   2.530   .     S
Cu78   Cu79    2.530   .     S
Cu78   Cu80    2.530   .     S
Cu78   Cu223   2.530   .     S
Cu78   Zn221   2.530   .     S
Cu78   Cu224   2.530   .     S
Cu79   Cu82    2.530   .     S
Cu79   Cu80    2.530   .     S
Cu79   Zn81    2.530   .     S
Cu79   Cu226   2.530   .     S
Cu79   Cu224   2.530   .     S
Cu79   Zn225   2.530   .     S
Cu80   Zn81    2.530   .     S
Cu80   Cu106   2.530   .     S
Cu80   Cu103   2.530   .     S
Cu80   Zn249   2.530   .     S
Cu80   Cu226   2.530   .     S
Cu80   Cu223   2.530   .     S
Zn81   Cu84    2.530   .     S
Zn81   Cu106   2.530   .     S
Zn81   Cu107   2.530   .     S
Zn81   Cu82    2.530   .     S
Zn81   Cu252   2.530   .     S
Zn81   Cu226   2.530   .     S
Zn81   Cu227   2.530   .     S
Cu82   Cu83    2.530   .     S
Cu82   Cu84    2.530   .     S
Cu82   Cu227   2.530   .     S
Cu82   Cu228   2.530   .     S
Cu82   Zn225   2.530   .     S
Cu83   Cu86    2.530   .     S
Cu83   Zn85    2.530   .     S
Cu83   Cu84    2.530   .     S
Cu83   Cu230   2.530   .     S
Cu83   Zn229   2.530   .     S
Cu83   Cu228   2.530   .     S
Cu84   Zn85    2.530   .     S
Cu84   Cu107   2.530   .     S
Cu84   Cu110   2.530   .     S
Cu84   Zn253   2.530   .     S
Cu84   Cu227   2.530   .     S
Cu84   Cu230   2.530   .     S
Zn85   Cu88    2.530   .     S
Zn85   Cu110   2.530   .     S
Zn85   Cu111   2.530   .     S
Zn85   Cu86    2.530   .     S
Zn85   Cu256   2.530   .     S
Zn85   Cu230   2.530   .     S
Zn85   Cu231   2.530   .     S
Cu86   Cu87    2.530   .     S
Cu86   Cu88    2.530   .     S
Cu86   Cu231   2.530   .     S
Cu86   Cu232   2.530   .     S
Cu86   Zn229   2.530   .     S
Cu87   Cu90    2.530   .     S
Cu87   Zn89    2.530   .     S
Cu87   Cu88    2.530   .     S
Cu87   Cu234   2.530   .     S
Cu87   Zn233   2.530   .     S
Cu87   Cu232   2.530   .     S
Cu88   Zn89    2.530   .     S
Cu88   Cu111   2.530   .     S
Cu88   Cu114   2.530   .     S
Cu88   Zn257   2.530   .     S
Cu88   Cu231   2.530   .     S
Cu88   Cu234   2.530   .     S
Zn89   Cu92    2.530   .     S
Zn89   Cu114   2.530   .     S
Zn89   Cu115   2.530   .     S
Zn89   Cu90    2.530   .     S
Zn89   Cu260   2.530   .     S
Zn89   Cu234   2.530   .     S
Zn89   Cu235   2.530   .     S
Cu90   Cu91    2.530   .     S
Cu90   Cu92    2.530   .     S
Cu90   Cu235   2.530   .     S
Cu90   Zn233   2.530   .     S
Cu90   Cu236   2.530   .     S
Cu91   Cu94    2.530   .     S
Cu91   Cu92    2.530   .     S
Cu91   Zn93    2.530   .     S
Cu91   Cu238   2.530   .     S
Cu91   Cu236   2.530   .     S
Cu91   Zn237   2.530   .     S
Cu92   Zn93    2.530   .     S
Cu92   Cu118   2.530   .     S
Cu92   Cu115   2.530   .     S
Cu92   Zn261   2.530   .     S
Cu92   Cu238   2.530   .     S
Cu92   Cu235   2.530   .     S
Zn93   Cu96    2.530   .     S
Zn93   Cu119   2.530   .     S
Zn93   Cu118   2.530   .     S
Zn93   Cu94    2.530   .     S
Zn93   Cu264   2.530   .     S
Zn93   Cu239   2.530   .     S
Zn93   Cu238   2.530   .     S
Cu94   Cu95    2.530   .     S
Cu94   Cu96    2.530   .     S
Cu94   Cu239   2.530   .     S
Cu94   Zn237   2.530   .     S
Cu94   Cu240   2.530   .     S
Cu95   Cu96    2.530   .     S
Cu95   Cu240   2.530   .     S
Cu96   Cu119   2.530   .     S
Cu96   Cu239   2.530   .     S
Zn97   Cu100   2.530   .     S
Zn97   Cu123   2.530   .     S
Zn97   Cu122   2.530   .     S
Zn97   Cu98    2.530   .     S
Zn97   Cu243   2.530   .     S
Zn97   Cu268   2.530   .     S
Zn97   Cu242   2.530   .     S
Cu98   Cu99    2.530   .     S
Cu98   Cu100   2.530   .     S
Cu98   Cu243   2.530   .     S
Cu98   Zn241   2.530   .     S
Cu98   Cu244   2.529   .     S
Cu99   Cu102   2.530   .     S
Cu99   Cu100   2.530   .     S
Cu99   Zn101   2.530   .     S
Cu99   Cu246   2.530   .     S
Cu99   Cu244   2.530   .     S
Cu99   Zn245   2.530   .     S
Cu100  Zn101   2.530   .     S
Cu100  Cu126   2.530   .     S
Cu100  Cu123   2.530   .     S
Cu100  Cu246   2.530   .     S
Cu100  Zn269   2.530   .     S
Cu100  Cu243   2.530   .     S
Zn101  Cu104   2.530   .     S
Zn101  Cu127   2.530   .     S
Zn101  Cu126   2.530   .     S
Zn101  Cu102   2.530   .     S
Zn101  Cu247   2.530   .     S
Zn101  Cu272   2.530   .     S
Zn101  Cu246   2.530   .     S
Cu102  Cu103   2.530   .     S
Cu102  Cu104   2.530   .     S
Cu102  Cu247   2.530   .     S
Cu102  Zn245   2.530   .     S
Cu102  Cu248   2.530   .     S
Cu103  Cu106   2.530   .     S
Cu103  Cu104   2.530   .     S
Cu103  Zn105   2.530   .     S
Cu103  Cu250   2.530   .     S
Cu103  Cu248   2.530   .     S
Cu103  Zn249   2.529   .     S
Cu104  Zn105   2.530   .     S
Cu104  Cu130   2.530   .     S
Cu104  Cu127   2.530   .     S
Cu104  Cu250   2.530   .     S
Cu104  Zn273   2.530   .     S
Cu104  Cu247   2.530   .     S
Zn105  Cu108   2.530   .     S
Zn105  Cu131   2.530   .     S
Zn105  Cu130   2.530   .     S
Zn105  Cu106   2.530   .     S
Zn105  Cu251   2.530   .     S
Zn105  Cu276   2.530   .     S
Zn105  Cu250   2.530   .     S
Cu106  Cu107   2.530   .     S
Cu106  Cu108   2.530   .     S
Cu106  Cu251   2.530   .     S
Cu106  Cu252   2.530   .     S
Cu106  Zn249   2.530   .     S
Cu107  Cu110   2.530   .     S
Cu107  Zn109   2.530   .     S
Cu107  Cu108   2.530   .     S
Cu107  Cu254   2.530   .     S
Cu107  Zn253   2.530   .     S
Cu107  Cu252   2.530   .     S
Cu108  Zn109   2.530   .     S
Cu108  Cu131   2.530   .     S
Cu108  Cu134   2.530   .     S
Cu108  Cu251   2.530   .     S
Cu108  Zn277   2.530   .     S
Cu108  Cu254   2.530   .     S
Zn109  Cu112   2.530   .     S
Zn109  Cu134   2.530   .     S
Zn109  Cu135   2.530   .     S
Zn109  Cu110   2.530   .     S
Zn109  Cu254   2.530   .     S
Zn109  Cu280   2.530   .     S
Zn109  Cu255   2.530   .     S
Cu110  Cu111   2.530   .     S
Cu110  Cu112   2.530   .     S
Cu110  Cu255   2.530   .     S
Cu110  Cu256   2.529   .     S
Cu110  Zn253   2.530   .     S
Cu111  Cu114   2.530   .     S
Cu111  Zn113   2.530   .     S
Cu111  Cu112   2.530   .     S
Cu111  Cu258   2.530   .     S
Cu111  Zn257   2.530   .     S
Cu111  Cu256   2.530   .     S
Cu112  Zn113   2.530   .     S
Cu112  Cu135   2.530   .     S
Cu112  Cu138   2.530   .     S
Cu112  Cu255   2.530   .     S
Cu112  Zn281   2.530   .     S
Cu112  Cu258   2.530   .     S
Zn113  Cu116   2.530   .     S
Zn113  Cu138   2.530   .     S
Zn113  Cu139   2.530   .     S
Zn113  Cu114   2.530   .     S
Zn113  Cu258   2.530   .     S
Zn113  Cu284   2.530   .     S
Zn113  Cu259   2.530   .     S
Cu114  Cu115   2.530   .     S
Cu114  Cu116   2.530   .     S
Cu114  Cu259   2.530   .     S
Cu114  Cu260   2.530   .     S
Cu114  Zn257   2.530   .     S
Cu115  Cu118   2.530   .     S
Cu115  Cu116   2.530   .     S
Cu115  Zn117   2.530   .     S
Cu115  Cu262   2.530   .     S
Cu115  Cu260   2.530   .     S
Cu115  Zn261   2.529   .     S
Cu116  Zn117   2.530   .     S
Cu116  Cu139   2.530   .     S
Cu116  Cu142   2.530   .     S
Cu116  Cu259   2.530   .     S
Cu116  Cu262   2.530   .     S
Cu116  Zn285   2.530   .     S
Zn117  Cu120   2.530   .     S
Zn117  Cu143   2.530   .     S
Zn117  Cu142   2.530   .     S
Zn117  Cu118   2.530   .     S
Zn117  Cu263   2.530   .     S
Zn117  Cu288   2.530   .     S
Zn117  Cu262   2.530   .     S
Cu118  Cu119   2.530   .     S
Cu118  Cu120   2.530   .     S
Cu118  Cu263   2.530   .     S
Cu118  Zn261   2.530   .     S
Cu118  Cu264   2.530   .     S
Cu119  Cu120   2.530   .     S
Cu119  Cu264   2.530   .     S
Cu120  Cu143   2.530   .     S
Cu120  Cu263   2.530   .     S
Zn121  Cu122   2.530   .     S
Zn121  Cu124   2.530   .     S
Zn121  Cu266   2.530   .     S
Zn121  Cu267   2.529   .     S
Cu122  Cu123   2.530   .     S
Cu122  Cu124   2.530   .     S
Cu122  Cu267   2.530   .     S
Cu122  Zn265   2.530   .     S
Cu122  Cu268   2.530   .     S
Cu123  Cu124   2.530   .     S
Cu123  Zn125   2.530   .     S
Cu123  Cu126   2.530   .     S
Cu123  Cu270   2.530   .     S
Cu123  Cu268   2.530   .     S
Cu123  Zn269   2.530   .     S
Cu124  Zn125   2.530   .     S
Cu124  Cu270   2.530   .     S
Cu124  Cu267   2.530   .     S
Zn125  Cu126   2.530   .     S
Zn125  Cu128   2.530   .     S
Zn125  Cu271   2.530   .     S
Zn125  Cu270   2.530   .     S
Cu126  Cu127   2.530   .     S
Cu126  Cu128   2.530   .     S
Cu126  Cu271   2.530   .     S
Cu126  Zn269   2.530   .     S
Cu126  Cu272   2.530   .     S
Cu127  Cu128   2.530   .     S
Cu127  Zn129   2.530   .     S
Cu127  Cu130   2.530   .     S
Cu127  Cu274   2.530   .     S
Cu127  Cu272   2.530   .     S
Cu127  Zn273   2.530   .     S
Cu128  Zn129   2.530   .     S
Cu128  Cu274   2.529   .     S
Cu128  Cu271   2.530   .     S
Zn129  Cu130   2.530   .     S
Zn129  Cu132   2.530   .     S
Zn129  Cu275   2.530   .     S
Zn129  Cu274   2.530   .     S
Cu130  Cu131   2.530   .     S
Cu130  Cu132   2.530   .     S
Cu130  Cu275   2.530   .     S
Cu130  Zn273   2.530   .     S
Cu130  Cu276   2.530   .     S
Cu131  Cu132   2.530   .     S
Cu131  Zn133   2.530   .     S
Cu131  Cu134   2.530   .     S
Cu131  Cu278   2.530   .     S
Cu131  Cu276   2.530   .     S
Cu131  Zn277   2.530   .     S
Cu132  Zn133   2.530   .     S
Cu132  Cu278   2.530   .     S
Cu132  Cu275   2.530   .     S
Zn133  Cu134   2.530   .     S
Zn133  Cu136   2.530   .     S
Zn133  Cu278   2.530   .     S
Zn133  Cu279   2.529   .     S
Cu134  Cu136   2.530   .     S
Cu134  Cu135   2.530   .     S
Cu134  Cu279   2.530   .     S
Cu134  Cu280   2.530   .     S
Cu134  Zn277   2.530   .     S
Cu135  Zn137   2.530   .     S
Cu135  Cu136   2.530   .     S
Cu135  Cu138   2.530   .     S
Cu135  Cu282   2.530   .     S
Cu135  Zn281   2.530   .     S
Cu135  Cu280   2.530   .     S
Cu136  Zn137   2.530   .     S
Cu136  Cu279   2.530   .     S
Cu136  Cu282   2.530   .     S
Zn137  Cu138   2.530   .     S
Zn137  Cu140   2.530   .     S
Zn137  Cu282   2.530   .     S
Zn137  Cu283   2.530   .     S
Cu138  Cu140   2.530   .     S
Cu138  Cu139   2.530   .     S
Cu138  Cu283   2.530   .     S
Cu138  Cu284   2.530   .     S
Cu138  Zn281   2.530   .     S
Cu139  Zn141   2.530   .     S
Cu139  Cu142   2.530   .     S
Cu139  Cu140   2.530   .     S
Cu139  Cu286   2.530   .     S
Cu139  Zn285   2.530   .     S
Cu139  Cu284   2.530   .     S
Cu140  Zn141   2.530   .     S
Cu140  Cu283   2.530   .     S
Cu140  Cu286   2.529   .     S
Zn141  Cu142   2.530   .     S
Zn141  Cu144   2.530   .     S
Zn141  Cu286   2.530   .     S
Zn141  Cu287   2.530   .     S
Cu142  Cu143   2.530   .     S
Cu142  Cu144   2.530   .     S
Cu142  Cu287   2.530   .     S
Cu142  Zn285   2.530   .     S
Cu142  Cu288   2.530   .     S
Cu143  Cu144   2.530   .     S
Cu143  Cu288   2.530   .     S
Cu144  Cu287   2.530   .     S
Zn145  Cu147   2.530   .     S
Zn145  Cu148   2.530   .     S
Zn145  Cu146   2.530   .     S
Zn145  Cu292   2.530   .     S
Cu146  Cu147   2.530   .     S
Cu146  Zn169   2.530   .     S
Cu146  Cu172   2.530   .     S
Cu146  Cu291   2.530   .     S
Cu146  Cu292   2.530   .     S
Cu147  Cu148   2.530   .     S
Cu147  Cu150   2.530   .     S
Cu147  Zn173   2.530   .     S
Cu147  Cu172   2.530   .     S
Cu147  Cu290   2.530   .     S
Cu147  Zn289   2.530   .     S
Cu147  Cu292   2.530   .     S
Cu148  Zn149   2.530   .     S
Cu148  Cu150   2.530   .     S
Cu148  Zn289   2.530   .     S
Zn149  Cu150   2.530   .     S
Zn149  Cu151   2.530   .     S
Zn149  Cu152   2.530   .     S
Zn149  Cu296   2.530   .     S
Cu150  Cu151   2.530   .     S
Cu150  Cu176   2.530   .     S
Cu150  Zn173   2.530   .     S
Cu150  Cu295   2.530   .     S
Cu150  Cu296   2.529   .     S
Cu150  Zn289   2.530   .     S
Cu151  Cu152   2.530   .     S
Cu151  Cu154   2.530   .     S
Cu151  Zn177   2.530   .     S
Cu151  Cu176   2.530   .     S
Cu151  Cu294   2.530   .     S
Cu151  Zn293   2.530   .     S
Cu151  Cu296   2.530   .     S
Cu152  Zn153   2.530   .     S
Cu152  Cu154   2.530   .     S
Cu152  Zn293   2.530   .     S
Zn153  Cu154   2.530   .     S
Zn153  Cu155   2.530   .     S
Zn153  Cu156   2.530   .     S
Zn153  Cu300   2.530   .     S
Cu154  Cu155   2.530   .     S
Cu154  Cu180   2.530   .     S
Cu154  Zn177   2.530   .     S
Cu154  Cu299   2.530   .     S
Cu154  Cu300   2.530   .     S
Cu154  Zn293   2.530   .     S
Cu155  Cu156   2.530   .     S
Cu155  Cu158   2.530   .     S
Cu155  Zn181   2.530   .     S
Cu155  Cu180   2.530   .     S
Cu155  Cu298   2.530   .     S
Cu155  Zn297   2.529   .     S
Cu155  Cu300   2.530   .     S
Cu156  Cu158   2.530   .     S
Cu156  Zn157   2.530   .     S
Cu156  Zn297   2.530   .     S
Zn157  Cu159   2.530   .     S
Zn157  Cu158   2.530   .     S
Zn157  Cu160   2.530   .     S
Zn157  Cu304   2.530   .     S
Cu158  Cu159   2.530   .     S
Cu158  Zn181   2.530   .     S
Cu158  Cu184   2.530   .     S
Cu158  Cu303   2.530   .     S
Cu158  Zn297   2.530   .     S
Cu158  Cu304   2.530   .     S
Cu159  Cu160   2.530   .     S
Cu159  Cu162   2.530   .     S
Cu159  Cu184   2.530   .     S
Cu159  Zn185   2.530   .     S
Cu159  Cu302   2.530   .     S
Cu159  Cu304   2.530   .     S
Cu159  Zn301   2.530   .     S
Cu160  Cu162   2.530   .     S
Cu160  Zn161   2.530   .     S
Cu160  Zn301   2.530   .     S
Zn161  Cu163   2.530   .     S
Zn161  Cu162   2.530   .     S
Zn161  Cu164   2.530   .     S
Zn161  Cu308   2.530   .     S
Cu162  Cu163   2.530   .     S
Cu162  Zn185   2.530   .     S
Cu162  Cu188   2.530   .     S
Cu162  Cu307   2.530   .     S
Cu162  Zn301   2.530   .     S
Cu162  Cu308   2.529   .     S
Cu163  Cu164   2.530   .     S
Cu163  Cu166   2.530   .     S
Cu163  Cu188   2.530   .     S
Cu163  Zn189   2.530   .     S
Cu163  Cu306   2.530   .     S
Cu163  Cu308   2.530   .     S
Cu163  Zn305   2.530   .     S
Cu164  Cu166   2.530   .     S
Cu164  Zn165   2.530   .     S
Cu164  Zn305   2.530   .     S
Zn165  Cu167   2.530   .     S
Zn165  Cu168   2.530   .     S
Zn165  Cu166   2.530   .     S
Zn165  Cu312   2.530   .     S
Cu166  Cu167   2.530   .     S
Cu166  Zn189   2.530   .     S
Cu166  Cu192   2.530   .     S
Cu166  Cu311   2.530   .     S
Cu166  Zn305   2.530   .     S
Cu166  Cu312   2.530   .     S
Cu167  Cu168   2.530   .     S
Cu167  Cu192   2.530   .     S
Cu167  Cu310   2.530   .     S
Cu167  Zn309   2.529   .     S
Cu167  Cu312   2.530   .     S
Cu168  Zn309   2.530   .     S
Zn169  Cu172   2.530   .     S
Zn169  Cu171   2.530   .     S
Zn169  Cu170   2.530   .     S
Zn169  Cu316   2.530   .     S
Zn169  Cu291   2.530   .     S
Cu170  Cu171   2.530   .     S
Cu170  Zn193   2.530   .     S
Cu170  Cu196   2.530   .     S
Cu170  Cu315   2.530   .     S
Cu170  Cu316   2.530   .     S
Cu171  Cu174   2.530   .     S
Cu171  Cu196   2.530   .     S
Cu171  Zn197   2.530   .     S
Cu171  Cu172   2.530   .     S
Cu171  Cu314   2.530   .     S
Cu171  Cu316   2.530   .     S
Cu171  Zn313   2.530   .     S
Cu172  Zn173   2.530   .     S
Cu172  Cu174   2.530   .     S
Cu172  Zn313   2.530   .     S
Cu172  Cu291   2.530   .     S
Cu172  Cu290   2.530   .     S
Zn173  Cu176   2.530   .     S
Zn173  Cu174   2.530   .     S
Zn173  Cu175   2.530   .     S
Zn173  Cu320   2.530   .     S
Zn173  Cu290   2.530   .     S
Zn173  Cu295   2.530   .     S
Cu174  Cu175   2.530   .     S
Cu174  Zn197   2.530   .     S
Cu174  Cu200   2.530   .     S
Cu174  Zn313   2.530   .     S
Cu174  Cu319   2.530   .     S
Cu174  Cu320   2.530   .     S
Cu175  Cu178   2.530   .     S
Cu175  Zn201   2.530   .     S
Cu175  Cu200   2.530   .     S
Cu175  Cu176   2.530   .     S
Cu175  Zn317   2.530   .     S
Cu175  Cu318   2.530   .     S
Cu175  Cu320   2.530   .     S
Cu176  Zn177   2.530   .     S
Cu176  Cu178   2.530   .     S
Cu176  Zn317   2.530   .     S
Cu176  Cu295   2.530   .     S
Cu176  Cu294   2.530   .     S
Zn177  Cu180   2.530   .     S
Zn177  Cu178   2.530   .     S
Zn177  Cu179   2.530   .     S
Zn177  Cu324   2.530   .     S
Zn177  Cu294   2.530   .     S
Zn177  Cu299   2.530   .     S
Cu178  Cu179   2.530   .     S
Cu178  Cu204   2.530   .     S
Cu178  Zn201   2.530   .     S
Cu178  Cu323   2.530   .     S
Cu178  Cu324   2.530   .     S
Cu178  Zn317   2.530   .     S
Cu179  Cu182   2.530   .     S
Cu179  Zn205   2.530   .     S
Cu179  Cu204   2.530   .     S
Cu179  Cu180   2.530   .     S
Cu179  Zn321   2.530   .     S
Cu179  Cu322   2.530   .     S
Cu179  Cu324   2.530   .     S
Cu180  Zn181   2.530   .     S
Cu180  Cu182   2.530   .     S
Cu180  Zn321   2.530   .     S
Cu180  Cu299   2.530   .     S
Cu180  Cu298   2.530   .     S
Zn181  Cu184   2.530   .     S
Zn181  Cu182   2.530   .     S
Zn181  Cu183   2.530   .     S
Zn181  Cu328   2.530   .     S
Zn181  Cu298   2.530   .     S
Zn181  Cu303   2.530   .     S
Cu182  Cu183   2.530   .     S
Cu182  Cu208   2.530   .     S
Cu182  Zn205   2.530   .     S
Cu182  Cu327   2.530   .     S
Cu182  Cu328   2.530   .     S
Cu182  Zn321   2.530   .     S
Cu183  Cu186   2.530   .     S
Cu183  Cu208   2.530   .     S
Cu183  Zn209   2.530   .     S
Cu183  Cu184   2.530   .     S
Cu183  Cu326   2.530   .     S
Cu183  Cu328   2.530   .     S
Cu183  Zn325   2.530   .     S
Cu184  Zn185   2.530   .     S
Cu184  Cu186   2.530   .     S
Cu184  Zn325   2.530   .     S
Cu184  Cu302   2.530   .     S
Cu184  Cu303   2.530   .     S
Zn185  Cu188   2.530   .     S
Zn185  Cu187   2.530   .     S
Zn185  Cu186   2.530   .     S
Zn185  Cu332   2.530   .     S
Zn185  Cu307   2.530   .     S
Zn185  Cu302   2.530   .     S
Cu186  Cu187   2.530   .     S
Cu186  Zn209   2.530   .     S
Cu186  Cu212   2.530   .     S
Cu186  Zn325   2.530   .     S
Cu186  Cu331   2.530   .     S
Cu186  Cu332   2.530   .     S
Cu187  Cu190   2.530   .     S
Cu187  Cu212   2.530   .     S
Cu187  Zn213   2.530   .     S
Cu187  Cu188   2.530   .     S
Cu187  Cu330   2.530   .     S
Cu187  Cu332   2.530   .     S
Cu187  Zn329   2.530   .     S
Cu188  Zn189   2.530   .     S
Cu188  Cu190   2.530   .     S
Cu188  Zn329   2.530   .     S
Cu188  Cu306   2.530   .     S
Cu188  Cu307   2.530   .     S
Zn189  Cu192   2.530   .     S
Zn189  Cu191   2.530   .     S
Zn189  Cu190   2.530   .     S
Zn189  Cu336   2.530   .     S
Zn189  Cu311   2.530   .     S
Zn189  Cu306   2.530   .     S
Cu190  Cu191   2.530   .     S
Cu190  Zn213   2.530   .     S
Cu190  Cu216   2.530   .     S
Cu190  Zn329   2.530   .     S
Cu190  Cu335   2.530   .     S
Cu190  Cu336   2.530   .     S
Cu191  Cu216   2.530   .     S
Cu191  Cu192   2.530   .     S
Cu191  Cu334   2.530   .     S
Cu191  Cu336   2.530   .     S
Cu191  Zn333   2.530   .     S
Cu192  Zn333   2.530   .     S
Cu192  Cu310   2.530   .     S
Cu192  Cu311   2.530   .     S
Zn193  Cu195   2.530   .     S
Zn193  Cu194   2.530   .     S
Zn193  Cu196   2.530   .     S
Zn193  Cu340   2.530   .     S
Zn193  Cu315   2.530   .     S
Cu194  Cu195   2.530   .     S
Cu194  Zn217   2.530   .     S
Cu194  Cu220   2.530   .     S
Cu194  Cu339   2.530   .     S
Cu194  Cu340   2.530   .     S
Cu195  Cu196   2.530   .     S
Cu195  Cu198   2.530   .     S
Cu195  Cu220   2.530   .     S
Cu195  Zn221   2.530   .     S
Cu195  Cu338   2.530   .     S
Cu195  Cu340   2.530   .     S
Cu195  Zn337   2.530   .     S
Cu196  Cu198   2.530   .     S
Cu196  Zn197   2.530   .     S
Cu196  Zn337   2.530   .     S
Cu196  Cu314   2.530   .     S
Cu196  Cu315   2.530   .     S
Zn197  Cu199   2.530   .     S
Zn197  Cu200   2.530   .     S
Zn197  Cu198   2.530   .     S
Zn197  Cu344   2.530   .     S
Zn197  Cu319   2.529   .     S
Zn197  Cu314   2.530   .     S
Cu198  Cu199   2.530   .     S
Cu198  Zn221   2.530   .     S
Cu198  Cu224   2.530   .     S
Cu198  Cu343   2.530   .     S
Cu198  Zn337   2.530   .     S
Cu198  Cu344   2.530   .     S
Cu199  Cu200   2.530   .     S
Cu199  Cu202   2.530   .     S
Cu199  Cu224   2.530   .     S
Cu199  Zn225   2.530   .     S
Cu199  Cu342   2.530   .     S
Cu199  Zn341   2.530   .     S
Cu199  Cu344   2.530   .     S
Cu200  Zn201   2.530   .     S
Cu200  Cu202   2.530   .     S
Cu200  Zn341   2.530   .     S
Cu200  Cu319   2.530   .     S
Cu200  Cu318   2.530   .     S
Zn201  Cu202   2.530   .     S
Zn201  Cu203   2.530   .     S
Zn201  Cu204   2.530   .     S
Zn201  Cu348   2.530   .     S
Zn201  Cu318   2.530   .     S
Zn201  Cu323   2.530   .     S
Cu202  Cu203   2.530   .     S
Cu202  Cu228   2.530   .     S
Cu202  Zn225   2.530   .     S
Cu202  Cu347   2.530   .     S
Cu202  Cu348   2.530   .     S
Cu202  Zn341   2.530   .     S
Cu203  Cu204   2.530   .     S
Cu203  Cu206   2.530   .     S
Cu203  Zn229   2.530   .     S
Cu203  Cu228   2.530   .     S
Cu203  Cu346   2.530   .     S
Cu203  Zn345   2.530   .     S
Cu203  Cu348   2.530   .     S
Cu204  Zn205   2.530   .     S
Cu204  Cu206   2.530   .     S
Cu204  Zn345   2.530   .     S
Cu204  Cu323   2.530   .     S
Cu204  Cu322   2.529   .     S
Zn205  Cu206   2.530   .     S
Zn205  Cu207   2.530   .     S
Zn205  Cu208   2.530   .     S
Zn205  Cu352   2.530   .     S
Zn205  Cu322   2.530   .     S
Zn205  Cu327   2.530   .     S
Cu206  Cu207   2.530   .     S
Cu206  Cu232   2.530   .     S
Cu206  Zn229   2.530   .     S
Cu206  Cu351   2.530   .     S
Cu206  Cu352   2.530   .     S
Cu206  Zn345   2.530   .     S
Cu207  Cu208   2.530   .     S
Cu207  Cu210   2.530   .     S
Cu207  Zn233   2.530   .     S
Cu207  Cu232   2.530   .     S
Cu207  Cu350   2.530   .     S
Cu207  Zn349   2.530   .     S
Cu207  Cu352   2.530   .     S
Cu208  Cu210   2.530   .     S
Cu208  Zn209   2.530   .     S
Cu208  Zn349   2.530   .     S
Cu208  Cu326   2.530   .     S
Cu208  Cu327   2.530   .     S
Zn209  Cu211   2.530   .     S
Zn209  Cu210   2.530   .     S
Zn209  Cu212   2.530   .     S
Zn209  Cu356   2.530   .     S
Zn209  Cu331   2.529   .     S
Zn209  Cu326   2.530   .     S
Cu210  Cu211   2.530   .     S
Cu210  Zn233   2.530   .     S
Cu210  Cu236   2.530   .     S
Cu210  Cu355   2.530   .     S
Cu210  Zn349   2.530   .     S
Cu210  Cu356   2.530   .     S
Cu211  Cu212   2.530   .     S
Cu211  Cu214   2.530   .     S
Cu211  Cu236   2.530   .     S
Cu211  Zn237   2.530   .     S
Cu211  Cu354   2.530   .     S
Cu211  Cu356   2.530   .     S
Cu211  Zn353   2.530   .     S
Cu212  Cu214   2.530   .     S
Cu212  Zn213   2.530   .     S
Cu212  Zn353   2.530   .     S
Cu212  Cu330   2.530   .     S
Cu212  Cu331   2.530   .     S
Zn213  Cu215   2.530   .     S
Zn213  Cu214   2.530   .     S
Zn213  Cu216   2.530   .     S
Zn213  Cu360   2.530   .     S
Zn213  Cu335   2.530   .     S
Zn213  Cu330   2.530   .     S
Cu214  Cu215   2.530   .     S
Cu214  Zn237   2.530   .     S
Cu214  Cu240   2.530   .     S
Cu214  Cu359   2.530   .     S
Cu214  Zn353   2.530   .     S
Cu214  Cu360   2.530   .     S
Cu215  Cu216   2.530   .     S
Cu215  Cu240   2.530   .     S
Cu215  Cu358   2.530   .     S
Cu215  Cu360   2.530   .     S
Cu215  Zn357   2.530   .     S
Cu216  Zn357   2.530   .     S
Cu216  Cu334   2.529   .     S
Cu216  Cu335   2.530   .     S
Zn217  Cu220   2.530   .     S
Zn217  Cu219   2.530   .     S
Zn217  Cu218   2.530   .     S
Zn217  Cu364   2.530   .     S
Zn217  Cu339   2.530   .     S
Cu218  Cu219   2.530   .     S
Cu218  Zn241   2.530   .     S
Cu218  Cu244   2.530   .     S
Cu218  Cu363   2.530   .     S
Cu218  Cu364   2.530   .     S
Cu219  Cu222   2.530   .     S
Cu219  Cu244   2.530   .     S
Cu219  Zn245   2.530   .     S
Cu219  Cu220   2.530   .     S
Cu219  Cu362   2.530   .     S
Cu219  Cu364   2.530   .     S
Cu219  Zn361   2.530   .     S
Cu220  Zn221   2.530   .     S
Cu220  Cu222   2.530   .     S
Cu220  Zn361   2.530   .     S
Cu220  Cu338   2.530   .     S
Cu220  Cu339   2.530   .     S
Zn221  Cu224   2.530   .     S
Zn221  Cu223   2.530   .     S
Zn221  Cu222   2.530   .     S
Zn221  Cu368   2.530   .     S
Zn221  Cu343   2.530   .     S
Zn221  Cu338   2.530   .     S
Cu222  Cu223   2.530   .     S
Cu222  Zn245   2.530   .     S
Cu222  Cu248   2.530   .     S
Cu222  Cu367   2.530   .     S
Cu222  Zn361   2.530   .     S
Cu222  Cu368   2.529   .     S
Cu223  Cu226   2.530   .     S
Cu223  Cu248   2.530   .     S
Cu223  Zn249   2.530   .     S
Cu223  Cu224   2.530   .     S
Cu223  Cu366   2.530   .     S
Cu223  Cu368   2.530   .     S
Cu223  Zn365   2.530   .     S
Cu224  Zn225   2.530   .     S
Cu224  Cu226   2.530   .     S
Cu224  Zn365   2.530   .     S
Cu224  Cu342   2.530   .     S
Cu224  Cu343   2.530   .     S
Zn225  Cu228   2.530   .     S
Zn225  Cu226   2.530   .     S
Zn225  Cu227   2.530   .     S
Zn225  Cu372   2.530   .     S
Zn225  Cu342   2.530   .     S
Zn225  Cu347   2.530   .     S
Cu226  Cu227   2.530   .     S
Cu226  Cu252   2.530   .     S
Cu226  Zn249   2.530   .     S
Cu226  Cu371   2.530   .     S
Cu226  Zn365   2.530   .     S
Cu226  Cu372   2.530   .     S
Cu227  Cu230   2.530   .     S
Cu227  Zn253   2.530   .     S
Cu227  Cu252   2.530   .     S
Cu227  Cu228   2.530   .     S
Cu227  Cu370   2.530   .     S
Cu227  Zn369   2.529   .     S
Cu227  Cu372   2.530   .     S
Cu228  Zn229   2.530   .     S
Cu228  Cu230   2.530   .     S
Cu228  Zn369   2.530   .     S
Cu228  Cu347   2.530   .     S
Cu228  Cu346   2.530   .     S
Zn229  Cu232   2.530   .     S
Zn229  Cu230   2.530   .     S
Zn229  Cu231   2.530   .     S
Zn229  Cu376   2.530   .     S
Zn229  Cu346   2.530   .     S
Zn229  Cu351   2.530   .     S
Cu230  Cu231   2.530   .     S
Cu230  Cu256   2.530   .     S
Cu230  Zn253   2.530   .     S
Cu230  Cu375   2.530   .     S
Cu230  Cu376   2.530   .     S
Cu230  Zn369   2.530   .     S
Cu231  Cu234   2.530   .     S
Cu231  Zn257   2.530   .     S
Cu231  Cu256   2.530   .     S
Cu231  Cu232   2.530   .     S
Cu231  Cu374   2.530   .     S
Cu231  Zn373   2.530   .     S
Cu231  Cu376   2.530   .     S
Cu232  Zn233   2.530   .     S
Cu232  Cu234   2.530   .     S
Cu232  Zn373   2.530   .     S
Cu232  Cu351   2.530   .     S
Cu232  Cu350   2.530   .     S
Zn233  Cu236   2.530   .     S
Zn233  Cu234   2.530   .     S
Zn233  Cu235   2.530   .     S
Zn233  Cu380   2.530   .     S
Zn233  Cu350   2.530   .     S
Zn233  Cu355   2.530   .     S
Cu234  Cu235   2.530   .     S
Cu234  Cu260   2.530   .     S
Cu234  Zn257   2.530   .     S
Cu234  Cu379   2.530   .     S
Cu234  Cu380   2.529   .     S
Cu234  Zn373   2.530   .     S
Cu235  Cu238   2.530   .     S
Cu235  Cu260   2.530   .     S
Cu235  Zn261   2.530   .     S
Cu235  Cu236   2.530   .     S
Cu235  Cu378   2.530   .     S
Cu235  Cu380   2.530   .     S
Cu235  Zn377   2.530   .     S
Cu236  Zn237   2.530   .     S
Cu236  Cu238   2.530   .     S
Cu236  Zn377   2.530   .     S
Cu236  Cu354   2.530   .     S
Cu236  Cu355   2.530   .     S
Zn237  Cu240   2.530   .     S
Zn237  Cu239   2.530   .     S
Zn237  Cu238   2.530   .     S
Zn237  Cu384   2.530   .     S
Zn237  Cu359   2.530   .     S
Zn237  Cu354   2.530   .     S
Cu238  Cu239   2.530   .     S
Cu238  Zn261   2.530   .     S
Cu238  Cu264   2.530   .     S
Cu238  Cu383   2.530   .     S
Cu238  Zn377   2.530   .     S
Cu238  Cu384   2.530   .     S
Cu239  Cu264   2.530   .     S
Cu239  Cu240   2.530   .     S
Cu239  Cu382   2.530   .     S
Cu239  Cu384   2.530   .     S
Cu239  Zn381   2.529   .     S
Cu240  Zn381   2.530   .     S
Cu240  Cu358   2.530   .     S
Cu240  Cu359   2.530   .     S
Zn241  Cu244   2.530   .     S
Zn241  Cu243   2.530   .     S
Zn241  Cu242   2.530   .     S
Zn241  Cu363   2.530   .     S
Zn241  Cu388   2.530   .     S
Cu242  Zn265   2.530   .     S
Cu242  Cu243   2.530   .     S
Cu242  Cu268   2.530   .     S
Cu242  Cu387   2.530   .     S
Cu242  Cu388   2.530   .     S
Cu243  Cu268   2.530   .     S
Cu243  Cu246   2.530   .     S
Cu243  Zn269   2.530   .     S
Cu243  Cu244   2.530   .     S
Cu243  Cu386   2.530   .     S
Cu243  Cu388   2.530   .     S
Cu243  Zn385   2.530   .     S
Cu244  Zn245   2.530   .     S
Cu244  Cu246   2.530   .     S
Cu244  Cu362   2.530   .     S
Cu244  Zn385   2.530   .     S
Cu244  Cu363   2.530   .     S
Zn245  Cu248   2.530   .     S
Zn245  Cu247   2.530   .     S
Zn245  Cu246   2.530   .     S
Zn245  Cu367   2.530   .     S
Zn245  Cu392   2.530   .     S
Zn245  Cu362   2.530   .     S
Cu246  Zn269   2.530   .     S
Cu246  Cu247   2.530   .     S
Cu246  Cu272   2.530   .     S
Cu246  Cu391   2.530   .     S
Cu246  Zn385   2.530   .     S
Cu246  Cu392   2.530   .     S
Cu247  Cu272   2.530   .     S
Cu247  Cu250   2.530   .     S
Cu247  Zn273   2.530   .     S
Cu247  Cu248   2.530   .     S
Cu247  Cu390   2.530   .     S
Cu247  Cu392   2.530   .     S
Cu247  Zn389   2.530   .     S
Cu248  Zn249   2.530   .     S
Cu248  Cu250   2.530   .     S
Cu248  Cu366   2.530   .     S
Cu248  Zn389   2.530   .     S
Cu248  Cu367   2.530   .     S
Zn249  Cu252   2.530   .     S
Zn249  Cu250   2.530   .     S
Zn249  Cu251   2.530   .     S
Zn249  Cu366   2.530   .     S
Zn249  Cu371   2.530   .     S
Zn249  Cu396   2.530   .     S
Cu250  Zn273   2.530   .     S
Cu250  Cu251   2.530   .     S
Cu250  Cu276   2.530   .     S
Cu250  Cu395   2.530   .     S
Cu250  Zn389   2.530   .     S
Cu250  Cu396   2.530   .     S
Cu251  Cu276   2.530   .     S
Cu251  Zn277   2.530   .     S
Cu251  Cu254   2.530   .     S
Cu251  Cu252   2.530   .     S
Cu251  Cu394   2.530   .     S
Cu251  Zn393   2.530   .     S
Cu251  Cu396   2.530   .     S
Cu252  Zn253   2.530   .     S
Cu252  Cu254   2.530   .     S
Cu252  Cu371   2.530   .     S
Cu252  Zn393   2.530   .     S
Cu252  Cu370   2.530   .     S
Zn253  Cu256   2.530   .     S
Zn253  Cu254   2.530   .     S
Zn253  Cu255   2.530   .     S
Zn253  Cu370   2.530   .     S
Zn253  Cu400   2.530   .     S
Zn253  Cu375   2.530   .     S
Cu254  Cu280   2.530   .     S
Cu254  Zn277   2.530   .     S
Cu254  Cu255   2.530   .     S
Cu254  Cu399   2.530   .     S
Cu254  Cu400   2.530   .     S
Cu254  Zn393   2.530   .     S
Cu255  Zn281   2.530   .     S
Cu255  Cu280   2.530   .     S
Cu255  Cu258   2.530   .     S
Cu255  Cu256   2.530   .     S
Cu255  Cu398   2.530   .     S
Cu255  Zn397   2.530   .     S
Cu255  Cu400   2.530   .     S
Cu256  Zn257   2.530   .     S
Cu256  Cu258   2.530   .     S
Cu256  Cu375   2.530   .     S
Cu256  Zn397   2.530   .     S
Cu256  Cu374   2.530   .     S
Zn257  Cu260   2.530   .     S
Zn257  Cu258   2.530   .     S
Zn257  Cu259   2.530   .     S
Zn257  Cu374   2.530   .     S
Zn257  Cu404   2.530   .     S
Zn257  Cu379   2.530   .     S
Cu258  Cu284   2.530   .     S
Cu258  Zn281   2.530   .     S
Cu258  Cu259   2.530   .     S
Cu258  Cu403   2.530   .     S
Cu258  Cu404   2.530   .     S
Cu258  Zn397   2.530   .     S
Cu259  Cu262   2.530   .     S
Cu259  Zn285   2.530   .     S
Cu259  Cu284   2.530   .     S
Cu259  Cu260   2.530   .     S
Cu259  Cu402   2.530   .     S
Cu259  Zn401   2.530   .     S
Cu259  Cu404   2.530   .     S
Cu260  Zn261   2.530   .     S
Cu260  Cu262   2.530   .     S
Cu260  Cu378   2.530   .     S
Cu260  Cu379   2.530   .     S
Cu260  Zn401   2.530   .     S
Zn261  Cu264   2.530   .     S
Zn261  Cu263   2.530   .     S
Zn261  Cu262   2.530   .     S
Zn261  Cu383   2.530   .     S
Zn261  Cu408   2.530   .     S
Zn261  Cu378   2.530   .     S
Cu262  Zn285   2.530   .     S
Cu262  Cu263   2.530   .     S
Cu262  Cu288   2.530   .     S
Cu262  Cu407   2.530   .     S
Cu262  Zn401   2.530   .     S
Cu262  Cu408   2.530   .     S
Cu263  Cu288   2.530   .     S
Cu263  Cu264   2.530   .     S
Cu263  Cu406   2.530   .     S
Cu263  Cu408   2.530   .     S
Cu263  Zn405   2.530   .     S
Cu264  Cu382   2.530   .     S
Cu264  Zn405   2.530   .     S
Cu264  Cu383   2.530   .     S
Zn265  Cu268   2.530   .     S
Zn265  Cu266   2.530   .     S
Zn265  Cu267   2.530   .     S
Zn265  Cu412   2.530   .     S
Zn265  Cu387   2.530   .     S
Cu266  Cu267   2.530   .     S
Cu266  Cu411   2.530   .     S
Cu266  Cu412   2.530   .     S
Cu267  Cu270   2.530   .     S
Cu267  Cu268   2.530   .     S
Cu267  Cu410   2.530   .     S
Cu267  Cu412   2.530   .     S
Cu267  Zn409   2.530   .     S
Cu268  Zn269   2.530   .     S
Cu268  Cu270   2.530   .     S
Cu268  Zn409   2.530   .     S
Cu268  Cu386   2.530   .     S
Cu268  Cu387   2.530   .     S
Zn269  Cu272   2.530   .     S
Zn269  Cu271   2.530   .     S
Zn269  Cu270   2.530   .     S
Zn269  Cu416   2.530   .     S
Zn269  Cu391   2.529   .     S
Zn269  Cu386   2.530   .     S
Cu270  Cu271   2.530   .     S
Cu270  Cu415   2.530   .     S
Cu270  Zn409   2.530   .     S
Cu270  Cu416   2.530   .     S
Cu271  Cu274   2.530   .     S
Cu271  Cu272   2.530   .     S
Cu271  Cu414   2.530   .     S
Cu271  Cu416   2.530   .     S
Cu271  Zn413   2.530   .     S
Cu272  Zn273   2.530   .     S
Cu272  Cu274   2.530   .     S
Cu272  Zn413   2.530   .     S
Cu272  Cu390   2.530   .     S
Cu272  Cu391   2.530   .     S
Zn273  Cu276   2.530   .     S
Zn273  Cu275   2.530   .     S
Zn273  Cu274   2.530   .     S
Zn273  Cu420   2.530   .     S
Zn273  Cu395   2.530   .     S
Zn273  Cu390   2.530   .     S
Cu274  Cu275   2.530   .     S
Cu274  Cu419   2.530   .     S
Cu274  Zn413   2.530   .     S
Cu274  Cu420   2.530   .     S
Cu275  Cu278   2.530   .     S
Cu275  Cu276   2.530   .     S
Cu275  Cu418   2.530   .     S
Cu275  Zn417   2.530   .     S
Cu275  Cu420   2.530   .     S
Cu276  Zn277   2.530   .     S
Cu276  Cu278   2.530   .     S
Cu276  Zn417   2.530   .     S
Cu276  Cu394   2.529   .     S
Cu276  Cu395   2.530   .     S
Zn277  Cu280   2.530   .     S
Zn277  Cu278   2.530   .     S
Zn277  Cu279   2.530   .     S
Zn277  Cu424   2.530   .     S
Zn277  Cu394   2.530   .     S
Zn277  Cu399   2.530   .     S
Cu278  Cu279   2.530   .     S
Cu278  Cu423   2.530   .     S
Cu278  Cu424   2.530   .     S
Cu278  Zn417   2.530   .     S
Cu279  Cu282   2.530   .     S
Cu279  Cu280   2.530   .     S
Cu279  Cu422   2.530   .     S
Cu279  Zn421   2.530   .     S
Cu279  Cu424   2.530   .     S
Cu280  Zn281   2.530   .     S
Cu280  Cu282   2.530   .     S
Cu280  Zn421   2.530   .     S
Cu280  Cu399   2.530   .     S
Cu280  Cu398   2.530   .     S
Zn281  Cu284   2.530   .     S
Zn281  Cu282   2.530   .     S
Zn281  Cu283   2.530   .     S
Zn281  Cu428   2.530   .     S
Zn281  Cu398   2.530   .     S
Zn281  Cu403   2.529   .     S
Cu282  Cu283   2.530   .     S
Cu282  Cu427   2.530   .     S
Cu282  Cu428   2.530   .     S
Cu282  Zn421   2.530   .     S
Cu283  Cu286   2.530   .     S
Cu283  Cu284   2.530   .     S
Cu283  Cu426   2.530   .     S
Cu283  Zn425   2.530   .     S
Cu283  Cu428   2.530   .     S
Cu284  Zn285   2.530   .     S
Cu284  Cu286   2.530   .     S
Cu284  Zn425   2.530   .     S
Cu284  Cu403   2.530   .     S
Cu284  Cu402   2.530   .     S
Zn285  Cu288   2.530   .     S
Zn285  Cu286   2.530   .     S
Zn285  Cu287   2.530   .     S
Zn285  Cu432   2.530   .     S
Zn285  Cu402   2.530   .     S
Zn285  Cu407   2.530   .     S
Cu286  Cu287   2.530   .     S
Cu286  Cu431   2.530   .     S
Cu286  Cu432   2.530   .     S
Cu286  Zn425   2.530   .     S
Cu287  Cu288   2.530   .     S
Cu287  Cu430   2.530   .     S
Cu287  Cu432   2.530   .     S
Cu287  Zn429   2.530   .     S
Cu288  Zn429   2.530   .     S
Cu288  Cu406   2.529   .     S
Cu288  Cu407   2.530   .     S
Zn289  Cu292   2.530   .     S
Zn289  Cu434   2.530   .     S
Zn289  Cu296   2.530   .     S
Zn289  Cu435   2.530   .     S
Zn289  Cu290   2.530   .     S
Zn289  Cu436   2.530   .     S
Zn289  Cu295   2.530   .     S
Cu290  Zn433   2.530   .     S
Cu290  Cu436   2.530   .     S
Cu290  Cu459   2.530   .     S
Cu290  Cu291   2.530   .     S
Cu290  Cu295   2.530   .     S
Cu290  Zn313   2.530   .     S
Cu290  Cu320   2.530   .     S
Cu290  Cu292   2.530   .     S
Cu291  Cu458   2.530   .     S
Cu291  Zn433   2.530   .     S
Cu291  Cu316   2.530   .     S
Cu291  Zn313   2.530   .     S
Cu291  Cu292   2.530   .     S
Cu292  Cu434   2.530   .     S
Cu292  Zn433   2.530   .     S
Zn293  Cu438   2.530   .     S
Zn293  Cu296   2.530   .     S
Zn293  Cu300   2.530   .     S
Zn293  Cu439   2.530   .     S
Zn293  Cu294   2.530   .     S
Zn293  Cu440   2.530   .     S
Zn293  Cu299   2.530   .     S
Cu294  Cu440   2.530   .     S
Cu294  Cu463   2.530   .     S
Cu294  Cu295   2.530   .     S
Cu294  Zn437   2.530   .     S
Cu294  Cu299   2.530   .     S
Cu294  Cu324   2.530   .     S
Cu294  Zn317   2.530   .     S
Cu294  Cu296   2.530   .     S
Cu295  Zn437   2.530   .     S
Cu295  Cu462   2.530   .     S
Cu295  Cu436   2.530   .     S
Cu295  Zn317   2.530   .     S
Cu295  Cu320   2.530   .     S
Cu295  Cu296   2.530   .     S
Cu296  Cu435   2.530   .     S
Cu296  Cu438   2.530   .     S
Cu296  Zn437   2.530   .     S
Zn297  Cu442   2.530   .     S
Zn297  Cu443   2.530   .     S
Zn297  Cu300   2.530   .     S
Zn297  Cu304   2.530   .     S
Zn297  Cu298   2.530   .     S
Zn297  Cu303   2.530   .     S
Zn297  Cu444   2.530   .     S
Cu298  Cu303   2.530   .     S
Cu298  Cu444   2.530   .     S
Cu298  Cu467   2.530   .     S
Cu298  Cu299   2.530   .     S
Cu298  Zn441   2.530   .     S
Cu298  Cu328   2.530   .     S
Cu298  Zn321   2.530   .     S
Cu298  Cu300   2.530   .     S
Cu299  Zn441   2.530   .     S
Cu299  Cu466   2.530   .     S
Cu299  Cu440   2.530   .     S
Cu299  Zn321   2.530   .     S
Cu299  Cu324   2.530   .     S
Cu299  Cu300   2.530   .     S
Cu300  Cu439   2.530   .     S
Cu300  Cu442   2.530   .     S
Cu300  Zn441   2.530   .     S
Zn301  Cu447   2.530   .     S
Zn301  Cu304   2.530   .     S
Zn301  Cu446   2.530   .     S
Zn301  Cu308   2.530   .     S
Zn301  Cu307   2.530   .     S
Zn301  Cu448   2.530   .     S
Zn301  Cu302   2.530   .     S
Cu302  Zn445   2.530   .     S
Cu302  Cu471   2.530   .     S
Cu302  Cu303   2.530   .     S
Cu302  Cu307   2.530   .     S
Cu302  Cu448   2.530   .     S
Cu302  Zn325   2.530   .     S
Cu302  Cu332   2.530   .     S
Cu302  Cu304   2.530   .     S
Cu303  Cu444   2.530   .     S
Cu303  Cu470   2.530   .     S
Cu303  Zn445   2.530   .     S
Cu303  Cu328   2.530   .     S
Cu303  Zn325   2.530   .     S
Cu303  Cu304   2.530   .     S
Cu304  Cu446   2.530   .     S
Cu304  Cu443   2.530   .     S
Cu304  Zn445   2.530   .     S
Zn305  Cu451   2.530   .     S
Zn305  Cu308   2.530   .     S
Zn305  Cu450   2.530   .     S
Zn305  Cu312   2.530   .     S
Zn305  Cu311   2.530   .     S
Zn305  Cu452   2.530   .     S
Zn305  Cu306   2.530   .     S
Cu306  Zn449   2.530   .     S
Cu306  Cu475   2.530   .     S
Cu306  Cu307   2.530   .     S
Cu306  Cu311   2.530   .     S
Cu306  Cu452   2.530   .     S
Cu306  Zn329   2.530   .     S
Cu306  Cu336   2.530   .     S
Cu306  Cu308   2.530   .     S
Cu307  Cu448   2.530   .     S
Cu307  Cu474   2.530   .     S
Cu307  Zn449   2.530   .     S
Cu307  Cu332   2.530   .     S
Cu307  Zn329   2.530   .     S
Cu307  Cu308   2.530   .     S
Cu308  Cu450   2.530   .     S
Cu308  Cu447   2.530   .     S
Cu308  Zn449   2.530   .     S
Zn309  Cu312   2.530   .     S
Zn309  Cu454   2.530   .     S
Zn309  Cu455   2.530   .     S
Zn309  Cu310   2.530   .     S
Zn309  Cu456   2.530   .     S
Cu310  Zn453   2.530   .     S
Cu310  Cu456   2.530   .     S
Cu310  Cu479   2.530   .     S
Cu310  Cu311   2.530   .     S
Cu310  Zn333   2.530   .     S
Cu310  Cu312   2.530   .     S
Cu311  Cu452   2.530   .     S
Cu311  Cu478   2.530   .     S
Cu311  Zn453   2.530   .     S
Cu311  Cu336   2.530   .     S
Cu311  Zn333   2.530   .     S
Cu311  Cu312   2.530   .     S
Cu312  Cu454   2.530   .     S
Cu312  Cu451   2.530   .     S
Cu312  Zn453   2.530   .     S
Zn313  Cu319   2.530   .     S
Zn313  Cu320   2.530   .     S
Zn313  Cu460   2.530   .     S
Zn313  Cu314   2.530   .     S
Zn313  Cu316   2.530   .     S
Zn313  Cu459   2.530   .     S
Zn313  Cu458   2.530   .     S
Cu314  Cu316   2.530   .     S
Cu314  Zn457   2.530   .     S
Cu314  Cu315   2.530   .     S
Cu314  Cu319   2.530   .     S
Cu314  Cu460   2.530   .     S
Cu314  Zn337   2.530   .     S
Cu314  Cu344   2.530   .     S
Cu314  Cu483   2.530   .     S
Cu315  Cu316   2.530   .     S
Cu315  Zn457   2.530   .     S
Cu315  Cu340   2.530   .     S
Cu315  Cu482   2.530   .     S
Cu315  Zn337   2.530   .     S
Cu316  Zn457   2.530   .     S
Cu316  Cu458   2.530   .     S
Zn317  Cu318   2.530   .     S
Zn317  Cu464   2.530   .     S
Zn317  Cu320   2.530   .     S
Zn317  Cu323   2.530   .     S
Zn317  Cu324   2.530   .     S
Zn317  Cu462   2.530   .     S
Zn317  Cu463   2.530   .     S
Cu318  Cu464   2.530   .     S
Cu318  Cu319   2.530   .     S
Cu318  Cu320   2.530   .     S
Cu318  Zn461   2.530   .     S
Cu318  Cu323   2.530   .     S
Cu318  Cu348   2.530   .     S
Cu318  Cu487   2.530   .     S
Cu318  Zn341   2.530   .     S
Cu319  Cu320   2.530   .     S
Cu319  Cu460   2.530   .     S
Cu319  Zn461   2.530   .     S
Cu319  Zn341   2.530   .     S
Cu319  Cu486   2.530   .     S
Cu319  Cu344   2.530   .     S
Cu320  Zn461   2.530   .     S
Cu320  Cu459   2.530   .     S
Cu320  Cu462   2.530   .     S
Zn321  Cu322   2.530   .     S
Zn321  Cu468   2.530   .     S
Zn321  Cu324   2.530   .     S
Zn321  Cu327   2.530   .     S
Zn321  Cu328   2.530   .     S
Zn321  Cu466   2.530   .     S
Zn321  Cu467   2.530   .     S
Cu322  Cu468   2.530   .     S
Cu322  Cu323   2.530   .     S
Cu322  Cu324   2.530   .     S
Cu322  Zn465   2.530   .     S
Cu322  Cu327   2.530   .     S
Cu322  Cu352   2.530   .     S
Cu322  Cu491   2.530   .     S
Cu322  Zn345   2.530   .     S
Cu323  Cu324   2.530   .     S
Cu323  Zn465   2.530   .     S
Cu323  Cu464   2.530   .     S
Cu323  Zn345   2.530   .     S
Cu323  Cu490   2.530   .     S
Cu323  Cu348   2.530   .     S
Cu324  Zn465   2.530   .     S
Cu324  Cu463   2.530   .     S
Cu324  Cu466   2.530   .     S
Zn325  Cu331   2.530   .     S
Zn325  Cu472   2.530   .     S
Zn325  Cu326   2.530   .     S
Zn325  Cu328   2.530   .     S
Zn325  Cu332   2.530   .     S
Zn325  Cu471   2.530   .     S
Zn325  Cu470   2.530   .     S
Cu326  Cu327   2.530   .     S
Cu326  Cu328   2.530   .     S
Cu326  Zn469   2.530   .     S
Cu326  Cu331   2.530   .     S
Cu326  Cu472   2.530   .     S
Cu326  Zn349   2.530   .     S
Cu326  Cu495   2.530   .     S
Cu326  Cu356   2.530   .     S
Cu327  Cu328   2.530   .     S
Cu327  Zn469   2.530   .     S
Cu327  Cu468   2.530   .     S
Cu327  Zn349   2.530   .     S
Cu327  Cu494   2.530   .     S
Cu327  Cu352   2.530   .     S
Cu328  Zn469   2.530   .     S
Cu328  Cu467   2.530   .     S
Cu328  Cu470   2.530   .     S
Zn329  Cu335   2.530   .     S
Zn329  Cu476   2.530   .     S
Zn329  Cu330   2.530   .     S
Zn329  Cu332   2.530   .     S
Zn329  Cu336   2.530   .     S
Zn329  Cu475   2.530   .     S
Zn329  Cu474   2.530   .     S
Cu330  Cu332   2.530   .     S
Cu330  Zn473   2.530   .     S
Cu330  Cu331   2.530   .     S
Cu330  Cu335   2.530   .     S
Cu330  Cu476   2.530   .     S
Cu330  Zn353   2.530   .     S
Cu330  Cu499   2.530   .     S
Cu330  Cu360   2.530   .     S
Cu331  Cu472   2.530   .     S
Cu331  Cu332   2.530   .     S
Cu331  Zn473   2.530   .     S
Cu331  Cu356   2.530   .     S
Cu331  Cu498   2.530   .     S
Cu331  Zn353   2.530   .     S
Cu332  Zn473   2.530   .     S
Cu332  Cu474   2.530   .     S
Cu332  Cu471   2.530   .     S
Zn333  Cu480   2.530   .     S
Zn333  Cu334   2.530   .     S
Zn333  Cu336   2.530   .     S
Zn333  Cu479   2.530   .     S
Zn333  Cu478   2.530   .     S
Cu334  Cu336   2.530   .     S
Cu334  Zn477   2.530   .     S
Cu334  Cu335   2.530   .     S
Cu334  Cu480   2.530   .     S
Cu334  Zn357   2.530   .     S
Cu334  Cu503   2.530   .     S
Cu335  Cu476   2.530   .     S
Cu335  Cu336   2.530   .     S
Cu335  Zn477   2.530   .     S
Cu335  Cu360   2.530   .     S
Cu335  Cu502   2.530   .     S
Cu335  Zn357   2.530   .     S
Cu336  Zn477   2.530   .     S
Cu336  Cu478   2.530   .     S
Cu336  Cu475   2.530   .     S
Zn337  Cu344   2.530   .     S
Zn337  Cu483   2.530   .     S
Zn337  Cu340   2.530   .     S
Zn337  Cu482   2.530   .     S
Zn337  Cu343   2.530   .     S
Zn337  Cu484   2.530   .     S
Zn337  Cu338   2.530   .     S
Cu338  Zn481   2.530   .     S
Cu338  Cu507   2.530   .     S
Cu338  Cu339   2.530   .     S
Cu338  Cu343   2.530   .     S
Cu338  Cu484   2.530   .     S
Cu338  Zn361   2.530   .     S
Cu338  Cu368   2.530   .     S
Cu338  Cu340   2.530   .     S
Cu339  Cu506   2.530   .     S
Cu339  Zn481   2.530   .     S
Cu339  Cu364   2.530   .     S
Cu339  Zn361   2.530   .     S
Cu339  Cu340   2.530   .     S
Cu340  Cu482   2.530   .     S
Cu340  Zn481   2.530   .     S
Zn341  Cu486   2.530   .     S
Zn341  Cu344   2.530   .     S
Zn341  Cu348   2.530   .     S
Zn341  Cu487   2.530   .     S
Zn341  Cu342   2.530   .     S
Zn341  Cu488   2.530   .     S
Zn341  Cu347   2.530   .     S
Cu342  Zn485   2.530   .     S
Cu342  Cu488   2.530   .     S
Cu342  Cu511   2.530   .     S
Cu342  Cu343   2.530   .     S
Cu342  Cu347   2.530   .     S
Cu342  Zn365   2.530   .     S
Cu342  Cu372   2.530   .     S
Cu342  Cu344   2.530   .     S
Cu343  Cu484   2.530   .     S
Cu343  Cu510   2.530   .     S
Cu343  Zn485   2.530   .     S
Cu343  Cu368   2.530   .     S
Cu343  Zn365   2.530   .     S
Cu343  Cu344   2.530   .     S
Cu344  Cu483   2.530   .     S
Cu344  Cu486   2.530   .     S
Cu344  Zn485   2.530   .     S
Zn345  Cu490   2.530   .     S
Zn345  Cu348   2.530   .     S
Zn345  Cu352   2.530   .     S
Zn345  Cu491   2.530   .     S
Zn345  Cu346   2.530   .     S
Zn345  Cu492   2.530   .     S
Zn345  Cu351   2.530   .     S
Cu346  Cu492   2.530   .     S
Cu346  Cu515   2.530   .     S
Cu346  Cu347   2.530   .     S
Cu346  Zn489   2.530   .     S
Cu346  Cu351   2.530   .     S
Cu346  Cu376   2.530   .     S
Cu346  Zn369   2.530   .     S
Cu346  Cu348   2.530   .     S
Cu347  Zn489   2.530   .     S
Cu347  Cu514   2.530   .     S
Cu347  Cu488   2.530   .     S
Cu347  Zn369   2.530   .     S
Cu347  Cu372   2.530   .     S
Cu347  Cu348   2.530   .     S
Cu348  Cu487   2.530   .     S
Cu348  Cu490   2.530   .     S
Cu348  Zn489   2.530   .     S
Zn349  Cu494   2.530   .     S
Zn349  Cu495   2.530   .     S
Zn349  Cu352   2.530   .     S
Zn349  Cu356   2.530   .     S
Zn349  Cu350   2.530   .     S
Zn349  Cu355   2.530   .     S
Zn349  Cu496   2.530   .     S
Cu350  Cu355   2.530   .     S
Cu350  Cu496   2.530   .     S
Cu350  Cu519   2.530   .     S
Cu350  Cu351   2.530   .     S
Cu350  Zn493   2.530   .     S
Cu350  Cu380   2.530   .     S
Cu350  Zn373   2.530   .     S
Cu350  Cu352   2.530   .     S
Cu351  Zn493   2.530   .     S
Cu351  Cu518   2.530   .     S
Cu351  Cu492   2.530   .     S
Cu351  Zn373   2.530   .     S
Cu351  Cu376   2.530   .     S
Cu351  Cu352   2.530   .     S
Cu352  Cu491   2.530   .     S
Cu352  Cu494   2.530   .     S
Cu352  Zn493   2.530   .     S
Zn353  Cu499   2.530   .     S
Zn353  Cu356   2.530   .     S
Zn353  Cu498   2.530   .     S
Zn353  Cu360   2.530   .     S
Zn353  Cu359   2.530   .     S
Zn353  Cu500   2.530   .     S
Zn353  Cu354   2.530   .     S
Cu354  Zn497   2.530   .     S
Cu354  Cu523   2.530   .     S
Cu354  Cu355   2.530   .     S
Cu354  Cu359   2.530   .     S
Cu354  Cu500   2.530   .     S
Cu354  Zn377   2.530   .     S
Cu354  Cu384   2.530   .     S
Cu354  Cu356   2.530   .     S
Cu355  Cu496   2.530   .     S
Cu355  Cu522   2.530   .     S
Cu355  Zn497   2.530   .     S
Cu355  Cu380   2.530   .     S
Cu355  Zn377   2.530   .     S
Cu355  Cu356   2.530   .     S
Cu356  Cu498   2.530   .     S
Cu356  Cu495   2.530   .     S
Cu356  Zn497   2.530   .     S
Zn357  Cu503   2.530   .     S
Zn357  Cu360   2.530   .     S
Zn357  Cu502   2.530   .     S
Zn357  Cu504   2.530   .     S
Zn357  Cu358   2.530   .     S
Cu358  Zn501   2.530   .     S
Cu358  Cu527   2.530   .     S
Cu358  Cu359   2.530   .     S
Cu358  Cu504   2.530   .     S
Cu358  Zn381   2.530   .     S
Cu358  Cu360   2.530   .     S
Cu359  Cu500   2.530   .     S
Cu359  Cu526   2.530   .     S
Cu359  Zn501   2.530   .     S
Cu359  Cu384   2.530   .     S
Cu359  Zn381   2.530   .     S
Cu359  Cu360   2.530   .     S
Cu360  Cu502   2.530   .     S
Cu360  Cu499   2.530   .     S
Cu360  Zn501   2.530   .     S
Zn361  Cu508   2.530   .     S
Zn361  Cu364   2.530   .     S
Zn361  Cu368   2.530   .     S
Zn361  Cu367   2.530   .     S
Zn361  Cu362   2.530   .     S
Zn361  Cu507   2.530   .     S
Zn361  Cu506   2.530   .     S
Cu362  Zn385   2.530   .     S
Cu362  Cu531   2.530   .     S
Cu362  Cu363   2.530   .     S
Cu362  Cu367   2.530   .     S
Cu362  Cu392   2.530   .     S
Cu362  Cu364   2.530   .     S
Cu362  Zn505   2.530   .     S
Cu362  Cu508   2.530   .     S
Cu363  Cu388   2.530   .     S
Cu363  Cu530   2.530   .     S
Cu363  Zn385   2.530   .     S
Cu363  Cu364   2.530   .     S
Cu363  Zn505   2.530   .     S
Cu364  Zn505   2.530   .     S
Cu364  Cu506   2.530   .     S
Zn365  Cu372   2.530   .     S
Zn365  Cu512   2.530   .     S
Zn365  Cu368   2.530   .     S
Zn365  Cu371   2.530   .     S
Zn365  Cu366   2.530   .     S
Zn365  Cu511   2.530   .     S
Zn365  Cu510   2.530   .     S
Cu366  Zn389   2.530   .     S
Cu366  Cu535   2.530   .     S
Cu366  Cu367   2.530   .     S
Cu366  Cu371   2.530   .     S
Cu366  Cu396   2.530   .     S
Cu366  Cu368   2.530   .     S
Cu366  Zn509   2.530   .     S
Cu366  Cu512   2.530   .     S
Cu367  Cu392   2.530   .     S
Cu367  Cu534   2.530   .     S
Cu367  Zn389   2.530   .     S
Cu367  Cu508   2.530   .     S
Cu367  Cu368   2.530   .     S
Cu367  Zn509   2.530   .     S
Cu368  Zn509   2.530   .     S
Cu368  Cu510   2.530   .     S
Cu368  Cu507   2.530   .     S
Zn369  Cu516   2.530   .     S
Zn369  Cu372   2.530   .     S
Zn369  Cu376   2.530   .     S
Zn369  Cu370   2.530   .     S
Zn369  Cu375   2.530   .     S
Zn369  Cu514   2.530   .     S
Zn369  Cu515   2.530   .     S
Cu370  Cu400   2.530   .     S
Cu370  Cu539   2.530   .     S
Cu370  Cu371   2.530   .     S
Cu370  Zn393   2.530   .     S
Cu370  Cu375   2.530   .     S
Cu370  Cu516   2.530   .     S
Cu370  Cu372   2.530   .     S
Cu370  Zn513   2.530   .     S
Cu371  Zn393   2.530   .     S
Cu371  Cu396   2.530   .     S
Cu371  Cu538   2.530   .     S
Cu371  Cu372   2.530   .     S
Cu371  Cu512   2.530   .     S
Cu371  Zn513   2.530   .     S
Cu372  Zn513   2.530   .     S
Cu372  Cu511   2.530   .     S
Cu372  Cu514   2.530   .     S
Zn373  Cu520   2.530   .     S
Zn373  Cu376   2.530   .     S
Zn373  Cu380   2.530   .     S
Zn373  Cu374   2.530   .     S
Zn373  Cu379   2.530   .     S
Zn373  Cu518   2.530   .     S
Zn373  Cu519   2.530   .     S
Cu374  Cu404   2.530   .     S
Cu374  Cu543   2.530   .     S
Cu374  Cu375   2.530   .     S
Cu374  Zn397   2.530   .     S
Cu374  Cu379   2.530   .     S
Cu374  Cu520   2.530   .     S
Cu374  Cu376   2.530   .     S
Cu374  Zn517   2.530   .     S
Cu375  Zn397   2.530   .     S
Cu375  Cu542   2.530   .     S
Cu375  Cu400   2.530   .     S
Cu375  Cu376   2.530   .     S
Cu375  Zn517   2.530   .     S
Cu375  Cu516   2.530   .     S
Cu376  Zn517   2.530   .     S
Cu376  Cu515   2.530   .     S
Cu376  Cu518   2.530   .     S
Zn377  Cu524   2.530   .     S
Zn377  Cu380   2.530   .     S
Zn377  Cu384   2.530   .     S
Zn377  Cu383   2.530   .     S
Zn377  Cu378   2.530   .     S
Zn377  Cu523   2.530   .     S
Zn377  Cu522   2.530   .     S
Cu378  Cu379   2.530   .     S
Cu378  Zn401   2.530   .     S
Cu378  Cu547   2.530   .     S
Cu378  Cu383   2.530   .     S
Cu378  Cu408   2.530   .     S
Cu378  Cu380   2.530   .     S
Cu378  Zn521   2.530   .     S
Cu378  Cu524   2.530   .     S
Cu379  Zn401   2.530   .     S
Cu379  Cu546   2.530   .     S
Cu379  Cu404   2.530   .     S
Cu379  Cu380   2.530   .     S
Cu379  Zn521   2.530   .     S
Cu379  Cu520   2.530   .     S
Cu380  Zn521   2.530   .     S
Cu380  Cu519   2.530   .     S
Cu380  Cu522   2.530   .     S
Zn381  Cu528   2.530   .     S
Zn381  Cu384   2.530   .     S
Zn381  Cu382   2.530   .     S
Zn381  Cu527   2.530   .     S
Zn381  Cu526   2.530   .     S
Cu382  Zn405   2.530   .     S
Cu382  Cu551   2.530   .     S
Cu382  Cu383   2.530   .     S
Cu382  Cu384   2.530   .     S
Cu382  Zn525   2.530   .     S
Cu382  Cu528   2.530   .     S
Cu383  Cu408   2.530   .     S
Cu383  Cu550   2.530   .     S
Cu383  Zn405   2.530   .     S
Cu383  Cu524   2.530   .     S
Cu383  Cu384   2.530   .     S
Cu383  Zn525   2.530   .     S
Cu384  Zn525   2.530   .     S
Cu384  Cu526   2.530   .     S
Cu384  Cu523   2.530   .     S
Zn385  Cu531   2.530   .     S
Zn385  Cu388   2.530   .     S
Zn385  Cu530   2.530   .     S
Zn385  Cu392   2.530   .     S
Zn385  Cu391   2.530   .     S
Zn385  Cu532   2.530   .     S
Zn385  Cu386   2.530   .     S
Cu386  Zn529   2.530   .     S
Cu386  Cu387   2.530   .     S
Cu386  Cu391   2.530   .     S
Cu386  Cu532   2.530   .     S
Cu386  Zn409   2.530   .     S
Cu386  Cu555   2.530   .     S
Cu386  Cu416   2.530   .     S
Cu386  Cu388   2.530   .     S
Cu387  Zn529   2.530   .     S
Cu387  Cu412   2.530   .     S
Cu387  Cu554   2.530   .     S
Cu387  Zn409   2.530   .     S
Cu387  Cu388   2.530   .     S
Cu388  Cu530   2.530   .     S
Cu388  Zn529   2.530   .     S
Zn389  Cu535   2.530   .     S
Zn389  Cu392   2.530   .     S
Zn389  Cu534   2.530   .     S
Zn389  Cu396   2.530   .     S
Zn389  Cu395   2.530   .     S
Zn389  Cu536   2.530   .     S
Zn389  Cu390   2.530   .     S
Cu390  Zn533   2.530   .     S
Cu390  Cu391   2.530   .     S
Cu390  Cu395   2.530   .     S
Cu390  Cu536   2.530   .     S
Cu390  Zn413   2.530   .     S
Cu390  Cu559   2.530   .     S
Cu390  Cu420   2.530   .     S
Cu390  Cu392   2.530   .     S
Cu391  Cu532   2.530   .     S
Cu391  Zn533   2.530   .     S
Cu391  Cu416   2.530   .     S
Cu391  Cu558   2.530   .     S
Cu391  Zn413   2.530   .     S
Cu391  Cu392   2.530   .     S
Cu392  Cu534   2.530   .     S
Cu392  Cu531   2.530   .     S
Cu392  Zn533   2.530   .     S
Zn393  Cu396   2.530   .     S
Zn393  Cu538   2.530   .     S
Zn393  Cu400   2.530   .     S
Zn393  Cu539   2.530   .     S
Zn393  Cu394   2.530   .     S
Zn393  Cu540   2.530   .     S
Zn393  Cu399   2.530   .     S
Cu394  Zn537   2.530   .     S
Cu394  Cu540   2.530   .     S
Cu394  Cu395   2.530   .     S
Cu394  Cu399   2.530   .     S
Cu394  Cu424   2.530   .     S
Cu394  Cu563   2.530   .     S
Cu394  Zn417   2.530   .     S
Cu394  Cu396   2.530   .     S
Cu395  Cu536   2.530   .     S
Cu395  Zn537   2.530   .     S
Cu395  Zn417   2.530   .     S
Cu395  Cu420   2.530   .     S
Cu395  Cu562   2.530   .     S
Cu395  Cu396   2.530   .     S
Cu396  Cu538   2.530   .     S
Cu396  Cu535   2.530   .     S
Cu396  Zn537   2.530   .     S
Zn397  Cu542   2.530   .     S
Zn397  Cu400   2.530   .     S
Zn397  Cu404   2.530   .     S
Zn397  Cu543   2.530   .     S
Zn397  Cu398   2.530   .     S
Zn397  Cu544   2.530   .     S
Zn397  Cu403   2.530   .     S
Cu398  Cu544   2.530   .     S
Cu398  Cu399   2.530   .     S
Cu398  Zn541   2.530   .     S
Cu398  Cu403   2.530   .     S
Cu398  Cu428   2.530   .     S
Cu398  Cu567   2.530   .     S
Cu398  Zn421   2.530   .     S
Cu398  Cu400   2.530   .     S
Cu399  Zn541   2.530   .     S
Cu399  Cu540   2.530   .     S
Cu399  Zn421   2.530   .     S
Cu399  Cu566   2.530   .     S
Cu399  Cu424   2.530   .     S
Cu399  Cu400   2.530   .     S
Cu400  Cu539   2.530   .     S
Cu400  Cu542   2.530   .     S
Cu400  Zn541   2.530   .     S
Zn401  Cu546   2.530   .     S
Zn401  Cu547   2.530   .     S
Zn401  Cu404   2.530   .     S
Zn401  Cu408   2.530   .     S
Zn401  Cu402   2.530   .     S
Zn401  Cu407   2.530   .     S
Zn401  Cu548   2.530   .     S
Cu402  Cu407   2.530   .     S
Cu402  Cu548   2.530   .     S
Cu402  Cu403   2.530   .     S
Cu402  Zn545   2.530   .     S
Cu402  Cu432   2.530   .     S
Cu402  Cu571   2.530   .     S
Cu402  Zn425   2.530   .     S
Cu402  Cu404   2.530   .     S
Cu403  Zn545   2.530   .     S
Cu403  Cu544   2.530   .     S
Cu403  Zn425   2.530   .     S
Cu403  Cu570   2.530   .     S
Cu403  Cu428   2.530   .     S
Cu403  Cu404   2.530   .     S
Cu404  Cu543   2.530   .     S
Cu404  Cu546   2.530   .     S
Cu404  Zn545   2.530   .     S
Zn405  Cu551   2.530   .     S
Zn405  Cu408   2.530   .     S
Zn405  Cu550   2.530   .     S
Zn405  Cu552   2.530   .     S
Zn405  Cu406   2.530   .     S
Cu406  Zn549   2.530   .     S
Cu406  Cu407   2.530   .     S
Cu406  Cu552   2.530   .     S
Cu406  Zn429   2.530   .     S
Cu406  Cu575   2.530   .     S
Cu406  Cu408   2.530   .     S
Cu407  Cu548   2.530   .     S
Cu407  Zn549   2.530   .     S
Cu407  Cu432   2.530   .     S
Cu407  Cu574   2.530   .     S
Cu407  Zn429   2.530   .     S
Cu407  Cu408   2.530   .     S
Cu408  Cu550   2.530   .     S
Cu408  Cu547   2.530   .     S
Cu408  Zn549   2.530   .     S
Zn409  Cu555   2.530   .     S
Zn409  Cu556   2.530   .     S
Zn409  Cu412   2.530   .     S
Zn409  Cu554   2.530   .     S
Zn409  Cu416   2.530   .     S
Zn409  Cu415   2.530   .     S
Zn409  Cu410   2.530   .     S
Cu410  Cu411   2.530   .     S
Cu410  Cu415   2.530   .     S
Cu410  Cu412   2.530   .     S
Cu410  Zn553   2.530   .     S
Cu410  Cu556   2.530   .     S
Cu411  Cu412   2.530   .     S
Cu411  Zn553   2.530   .     S
Cu412  Zn553   2.530   .     S
Cu412  Cu554   2.530   .     S
Zn413  Cu559   2.530   .     S
Zn413  Cu560   2.530   .     S
Zn413  Cu416   2.530   .     S
Zn413  Cu558   2.530   .     S
Zn413  Cu420   2.530   .     S
Zn413  Cu419   2.530   .     S
Zn413  Cu414   2.530   .     S
Cu414  Cu415   2.530   .     S
Cu414  Cu419   2.530   .     S
Cu414  Cu416   2.530   .     S
Cu414  Zn557   2.530   .     S
Cu414  Cu560   2.530   .     S
Cu415  Cu556   2.530   .     S
Cu415  Cu416   2.530   .     S
Cu415  Zn557   2.530   .     S
Cu416  Zn557   2.530   .     S
Cu416  Cu558   2.530   .     S
Cu416  Cu555   2.530   .     S
Zn417  Cu420   2.530   .     S
Zn417  Cu562   2.530   .     S
Zn417  Cu424   2.530   .     S
Zn417  Cu563   2.530   .     S
Zn417  Cu564   2.530   .     S
Zn417  Cu418   2.530   .     S
Zn417  Cu423   2.530   .     S
Cu418  Cu419   2.530   .     S
Cu418  Cu423   2.530   .     S
Cu418  Cu420   2.530   .     S
Cu418  Zn561   2.530   .     S
Cu418  Cu564   2.530   .     S
Cu419  Cu560   2.530   .     S
Cu419  Cu420   2.530   .     S
Cu419  Zn561   2.530   .     S
Cu420  Zn561   2.530   .     S
Cu420  Cu562   2.530   .     S
Cu420  Cu559   2.530   .     S
Zn421  Cu566   2.530   .     S
Zn421  Cu568   2.530   .     S
Zn421  Cu424   2.530   .     S
Zn421  Cu428   2.530   .     S
Zn421  Cu567   2.530   .     S
Zn421  Cu422   2.530   .     S
Zn421  Cu427   2.530   .     S
Cu422  Cu423   2.530   .     S
Cu422  Cu427   2.530   .     S
Cu422  Cu568   2.530   .     S
Cu422  Cu424   2.530   .     S
Cu422  Zn565   2.530   .     S
Cu423  Cu424   2.530   .     S
Cu423  Cu564   2.530   .     S
Cu423  Zn565   2.530   .     S
Cu424  Cu563   2.530   .     S
Cu424  Zn565   2.530   .     S
Cu424  Cu566   2.530   .     S
Zn425  Cu570   2.530   .     S
Zn425  Cu572   2.530   .     S
Zn425  Cu428   2.530   .     S
Zn425  Cu432   2.530   .     S
Zn425  Cu571   2.530   .     S
Zn425  Cu426   2.530   .     S
Zn425  Cu431   2.530   .     S
Cu426  Cu427   2.530   .     S
Cu426  Cu431   2.530   .     S
Cu426  Cu572   2.530   .     S
Cu426  Cu428   2.530   .     S
Cu426  Zn569   2.530   .     S
Cu427  Cu428   2.530   .     S
Cu427  Zn569   2.530   .     S
Cu427  Cu568   2.530   .     S
Cu428  Cu567   2.530   .     S
Cu428  Zn569   2.530   .     S
Cu428  Cu570   2.530   .     S
Zn429  Cu575   2.530   .     S
Zn429  Cu576   2.530   .     S
Zn429  Cu432   2.530   .     S
Zn429  Cu574   2.530   .     S
Zn429  Cu430   2.530   .     S
Cu430  Cu431   2.530   .     S
Cu430  Cu432   2.530   .     S
Cu430  Zn573   2.530   .     S
Cu430  Cu576   2.530   .     S
Cu431  Cu432   2.530   .     S
Cu431  Zn573   2.530   .     S
Cu431  Cu572   2.530   .     S
Cu432  Cu571   2.530   .     S
Cu432  Zn573   2.530   .     S
Cu432  Cu574   2.530   .     S
Zn433  Cu436   2.530   .     S
Zn433  Cu459   2.530   .     S
Zn433  Cu458   2.530   .     S
Zn433  Cu434   2.530   .     S
Zn433  Cu684   2.593   .     S
Zn433  Cu658   2.736   .     S
Zn433  Cu587   2.663   .     S
Cu434  Cu435   2.530   .     S
Cu434  Cu436   2.530   .     S
Cu434  Cu618   2.542   .     S
Cu434  Cu658   2.752   .     S
Cu435  Cu438   2.530   .     S
Cu435  Zn437   2.530   .     S
Cu435  Cu436   2.530   .     S
Cu435  Cu711   2.683   .     S
Cu435  Cu618   2.534   .     S
Cu436  Cu459   2.530   .     S
Cu436  Zn437   2.530   .     S
Cu436  Cu462   2.530   .     S
Cu436  Zn643   2.578   .     S
Cu436  Cu658   2.851   .     S
Cu436  Cu711   2.631   .     S
Zn437  Cu462   2.530   .     S
Zn437  Cu440   2.530   .     S
Zn437  Cu463   2.530   .     S
Zn437  Cu438   2.530   .     S
Zn437  Cu698   2.597   .     S
Zn437  Cu711   2.723   .     S
Zn437  Cu667   2.634   .     S
Cu438  Cu439   2.530   .     S
Cu438  Cu440   2.530   .     S
Cu438  Cu667   2.639   .     S
Cu439  Cu442   2.530   .     S
Cu439  Zn441   2.530   .     S
Cu439  Cu440   2.530   .     S
Cu439  Cu704   2.613   .     S
Cu440  Cu463   2.530   .     S
Cu440  Zn441   2.530   .     S
Cu440  Cu466   2.530   .     S
Cu440  Zn594   2.648   .     S
Cu440  Cu667   2.677   .     S
Cu440  Cu704   2.574   .     S
Zn441  Cu466   2.530   .     S
Zn441  Cu444   2.530   .     S
Zn441  Cu467   2.530   .     S
Zn441  Cu442   2.530   .     S
Zn441  Cu590   2.610   .     S
Zn441  Cu704   2.672   .     S
Zn441  Cu633   2.778   .     S
Cu442  Cu443   2.530   .     S
Cu442  Cu444   2.530   .     S
Cu442  Cu633   2.622   .     S
Cu443  Cu446   2.530   .     S
Cu443  Cu444   2.530   .     S
Cu443  Zn445   2.530   .     S
Cu443  Cu589   2.580   .     S
Cu443  Zn669   2.721   .     S
Cu444  Cu467   2.530   .     S
Cu444  Cu470   2.530   .     S
Cu444  Zn445   2.530   .     S
Cu444  Zn632   2.621   .     S
Cu444  Cu633   2.725   .     S
Cu444  Cu589   2.418   .     S
Zn445  Cu471   2.530   .     S
Zn445  Cu470   2.530   .     S
Zn445  Cu448   2.530   .     S
Zn445  Cu446   2.530   .     S
Zn445  Cu717   2.629   .     S
Zn445  Cu589   2.556   .     S
Zn445  Cu681   2.652   .     S
Cu446  Cu447   2.530   .     S
Cu446  Cu448   2.530   .     S
Cu446  Zn669   2.849   .     S
Cu446  Cu681   2.595   .     S
Cu446  Cu682   2.693   .     S
Cu447  Cu450   2.530   .     S
Cu447  Cu448   2.530   .     S
Cu447  Zn449   2.530   .     S
Cu447  Cu642   2.859   .     S
Cu447  Cu682   2.705   .     S
Cu447  Zn679   2.548   .     S
Cu448  Cu474   2.530   .     S
Cu448  Cu471   2.530   .     S
Cu448  Zn449   2.530   .     S
Cu448  Cu642   2.816   .     S
Cu448  Cu681   2.673   .     S
Zn449  Cu475   2.530   .     S
Zn449  Cu474   2.530   .     S
Zn449  Cu452   2.530   .     S
Zn449  Cu450   2.530   .     S
Zn449  Cu654   2.679   .     S
Zn449  Cu668   2.675   .     S
Zn449  Cu642   2.798   .     S
Cu450  Cu451   2.530   .     S
Cu450  Cu452   2.530   .     S
Cu450  Cu668   2.761   .     S
Cu450  Zn679   2.578   .     S
Cu450  Cu714   2.613   .     S
Cu451  Cu454   2.530   .     S
Cu451  Cu452   2.530   .     S
Cu451  Zn453   2.530   .     S
Cu451  Cu584   2.803   .     S
Cu451  Cu714   2.616   .     S
Cu452  Cu478   2.530   .     S
Cu452  Cu475   2.530   .     S
Cu452  Zn453   2.530   .     S
Cu452  Zn625   2.644   .     S
Cu452  Cu584   2.747   .     S
Cu452  Cu668   2.615   .     S
Zn453  Cu456   2.530   .     S
Zn453  Cu479   2.530   .     S
Zn453  Cu478   2.530   .     S
Zn453  Cu454   2.530   .     S
Zn453  Cu660   2.526   .     S
Zn453  Cu610   2.612   .     S
Zn453  Cu584   2.778   .     S
Cu454  Cu455   2.530   .     S
Cu454  Cu456   2.530   .     S
Cu454  Cu610   2.610   .     S
Cu454  Cu620   2.571   .     S
Cu455  Cu456   2.530   .     S
Cu455  Cu620   2.519   .     S
Cu456  Cu479   2.530   .     S
Cu456  Zn715   2.711   .     S
Cu456  Cu610   2.570   .     S
Zn457  Cu460   2.530   .     S
Zn457  Cu483   2.530   .     S
Zn457  Cu482   2.530   .     S
Zn457  Cu458   2.530   .     S
Zn457  Cu703   2.683   .     S
Zn457  Cu657   2.550   .     S
Cu458  Cu459   2.530   .     S
Cu458  Cu460   2.530   .     S
Cu458  Cu657   2.696   .     S
Cu458  Cu684   2.568   .     S
Cu459  Cu462   2.530   .     S
Cu459  Cu460   2.530   .     S
Cu459  Zn461   2.530   .     S
Cu459  Cu640   2.774   .     S
Cu459  Zn643   2.512   .     S
Cu460  Zn461   2.530   .     S
Cu460  Cu486   2.530   .     S
Cu460  Cu483   2.530   .     S
Cu460  Zn577   2.698   .     S
Cu460  Cu640   2.682   .     S
Cu460  Cu657   2.633   .     S
Zn461  Cu464   2.530   .     S
Zn461  Cu486   2.530   .     S
Zn461  Cu487   2.530   .     S
Zn461  Cu462   2.530   .     S
Zn461  Cu712   2.581   .     S
Zn461  Cu640   2.771   .     S
Zn461  Cu697   2.557   .     S
Cu462  Cu463   2.530   .     S
Cu462  Cu464   2.530   .     S
Cu462  Cu697   2.691   .     S
Cu462  Cu698   2.637   .     S
Cu462  Zn643   2.582   .     S
Cu463  Cu466   2.530   .     S
Cu463  Zn465   2.530   .     S
Cu463  Cu464   2.530   .     S
Cu463  Cu599   2.687   .     S
Cu463  Zn594   2.607   .     S
Cu463  Cu698   2.739   .     S
Cu464  Zn465   2.530   .     S
Cu464  Cu487   2.530   .     S
Cu464  Cu490   2.530   .     S
Cu464  Zn675   2.508   .     S
Cu464  Cu599   2.704   .     S
Zn465  Cu468   2.530   .     S
Zn465  Cu490   2.530   .     S
Zn465  Cu491   2.530   .     S
Zn465  Cu466   2.530   .     S
Zn465  Cu611   2.595   .     S
Zn465  Cu599   2.882   .     S
Zn465  Cu716   2.754   .     S
Cu466  Cu467   2.530   .     S
Cu466  Cu468   2.530   .     S
Cu466  Cu716   2.675   .     S
Cu466  Cu590   2.681   .     S
Cu466  Zn594   2.663   .     S
Cu467  Cu470   2.530   .     S
Cu467  Zn469   2.530   .     S
Cu467  Cu468   2.530   .     S
Cu467  Cu609   2.629   .     S
Cu467  Zn632   2.550   .     S
Cu467  Cu590   2.693   .     S
Cu468  Zn469   2.530   .     S
Cu468  Cu491   2.530   .     S
Cu468  Cu494   2.530   .     S
Cu468  Zn592   2.697   .     S
Cu468  Cu716   2.722   .     S
Cu468  Cu609   2.666   .     S
Zn469  Cu472   2.530   .     S
Zn469  Cu494   2.530   .     S
Zn469  Cu495   2.530   .     S
Zn469  Cu470   2.530   .     S
Zn469  Cu718   2.680   .     S
Zn469  Cu609   2.716   .     S
Zn469  Cu691   2.630   .     S
Cu470  Cu471   2.530   .     S
Cu470  Cu472   2.530   .     S
Cu470  Cu691   2.680   .     S
Cu470  Zn632   2.654   .     S
Cu470  Cu717   2.548   .     S
Cu471  Cu474   2.530   .     S
Cu471  Cu472   2.530   .     S
Cu471  Zn473   2.530   .     S
Cu471  Cu637   2.652   .     S
Cu471  Cu717   2.691   .     S
Cu472  Zn473   2.530   .     S
Cu472  Cu498   2.530   .     S
Cu472  Cu495   2.530   .     S
Cu472  Zn687   2.758   .     S
Cu472  Cu637   2.576   .     S
Zn473  Cu476   2.530   .     S
Zn473  Cu499   2.530   .     S
Zn473  Cu498   2.530   .     S
Zn473  Cu474   2.530   .     S
Zn473  Cu588   2.606   .     S
Zn473  Cu637   2.679   .     S
Cu474  Cu475   2.530   .     S
Cu474  Cu476   2.530   .     S
Cu474  Cu588   2.570   .     S
Cu474  Zn651   2.844   .     S
Cu474  Cu654   2.732   .     S
Cu475  Cu478   2.530   .     S
Cu475  Cu476   2.530   .     S
Cu475  Zn477   2.530   .     S
Cu475  Cu615   2.547   .     S
Cu475  Cu654   2.617   .     S
Cu475  Zn625   2.764   .     S
Cu476  Zn477   2.530   .     S
Cu476  Cu502   2.530   .     S
Cu476  Cu499   2.530   .     S
Cu476  Zn581   2.599   .     S
Cu476  Cu615   2.580   .     S
Cu476  Cu588   2.600   .     S
Zn477  Cu480   2.530   .     S
Zn477  Cu503   2.530   .     S
Zn477  Cu502   2.530   .     S
Zn477  Cu478   2.530   .     S
Zn477  Cu709   2.553   .     S
Zn477  Cu583   2.635   .     S
Zn477  Cu615   2.508   .     S
Cu478  Cu479   2.530   .     S
Cu478  Cu480   2.530   .     S
Cu478  Cu583   2.569   .     S
Cu478  Zn625   2.644   .     S
Cu478  Cu660   2.522   .     S
Cu479  Cu480   2.530   .     S
Cu479  Cu630   2.556   .     S
Cu479  Cu660   2.538   .     S
Cu479  Zn715   2.653   .     S
Cu480  Cu503   2.530   .     S
Cu480  Zn677   2.759   .     S
Cu480  Cu630   2.622   .     S
Cu480  Cu583   2.708   .     S
Zn481  Cu507   2.530   .     S
Zn481  Cu506   2.530   .     S
Zn481  Cu484   2.530   .     S
Zn481  Cu482   2.530   .     S
Zn481  Cu591   2.568   .     S
Zn481  Cu612   2.573   .     S
Zn481  Cu645   2.679   .     S
Cu482  Cu483   2.530   .     S
Cu482  Cu484   2.530   .     S
Cu482  Cu612   2.620   .     S
Cu482  Cu703   2.683   .     S
Cu483  Cu486   2.530   .     S
Cu483  Cu484   2.530   .     S
Cu483  Zn485   2.530   .     S
Cu483  Cu641   2.650   .     S
Cu483  Cu703   2.821   .     S
Cu483  Zn577   2.699   .     S
Cu484  Cu510   2.530   .     S
Cu484  Cu507   2.530   .     S
Cu484  Zn485   2.530   .     S
Cu484  Zn628   2.501   .     S
Cu484  Cu641   2.589   .     S
Cu484  Cu612   2.638   .     S
Zn485  Cu488   2.530   .     S
Zn485  Cu511   2.530   .     S
Zn485  Cu510   2.530   .     S
Zn485  Cu486   2.530   .     S
Zn485  Cu602   2.672   .     S
Zn485  Cu608   2.567   .     S
Zn485  Cu641   2.656   .     S
Cu486  Cu487   2.530   .     S
Cu486  Cu488   2.530   .     S
Cu486  Zn577   2.696   .     S
Cu486  Cu608   2.642   .     S
Cu486  Cu712   2.497   .     S
Cu487  Cu490   2.530   .     S
Cu487  Zn489   2.530   .     S
Cu487  Cu488   2.530   .     S
Cu487  Cu593   2.596   .     S
Cu487  Zn675   2.576   .     S
Cu487  Cu712   2.559   .     S
Cu488  Cu511   2.530   .     S
Cu488  Zn489   2.530   .     S
Cu488  Cu514   2.530   .     S
Cu488  Zn693   2.709   .     S
Cu488  Cu608   2.517   .     S
Cu488  Cu593   2.565   .     S
Zn489  Cu514   2.530   .     S
Zn489  Cu492   2.530   .     S
Zn489  Cu515   2.530   .     S
Zn489  Cu490   2.530   .     S
Zn489  Cu707   2.523   .     S
Zn489  Cu593   2.607   .     S
Zn489  Cu664   2.454   .     S
Cu490  Cu491   2.530   .     S
Cu490  Cu492   2.530   .     S
Cu490  Cu611   2.658   .     S
Cu490  Cu664   2.396   .     S
Cu490  Zn675   2.674   .     S
Cu491  Cu494   2.530   .     S
Cu491  Zn493   2.530   .     S
Cu491  Cu492   2.530   .     S
Cu491  Zn592   2.784   .     S
Cu491  Cu611   2.761   .     S
Cu492  Cu515   2.530   .     S
Cu492  Zn493   2.530   .     S
Cu492  Cu518   2.530   .     S
Cu492  Zn603   2.539   .     S
Cu492  Cu579   2.552   .     S
Cu492  Cu664   2.503   .     S
Zn493  Cu518   2.530   .     S
Zn493  Cu496   2.530   .     S
Zn493  Cu519   2.530   .     S
Zn493  Cu494   2.530   .     S
Zn493  Cu579   2.663   .     S
Zn493  Cu710   2.631   .     S
Cu494  Cu495   2.530   .     S
Cu494  Cu496   2.530   .     S
Cu494  Cu718   2.643   .     S
Cu494  Zn592   2.843   .     S
Cu495  Cu498   2.530   .     S
Cu495  Cu496   2.530   .     S
Cu495  Zn497   2.530   .     S
Cu495  Cu644   2.557   .     S
Cu495  Zn687   2.705   .     S
Cu496  Cu519   2.530   .     S
Cu496  Cu522   2.530   .     S
Cu496  Zn497   2.530   .     S
Cu496  Zn673   2.551   .     S
Cu496  Cu644   2.546   .     S
Zn497  Cu523   2.530   .     S
Zn497  Cu522   2.530   .     S
Zn497  Cu500   2.530   .     S
Zn497  Cu498   2.530   .     S
Zn497  Cu629   2.646   .     S
Zn497  Cu606   2.691   .     S
Zn497  Cu644   2.616   .     S
Cu498  Cu499   2.530   .     S
Cu498  Cu500   2.530   .     S
Cu498  Cu606   2.611   .     S
Cu498  Zn687   2.838   .     S
Cu499  Cu502   2.530   .     S
Cu499  Cu500   2.530   .     S
Cu499  Zn501   2.530   .     S
Cu499  Zn581   2.678   .     S
Cu500  Cu526   2.530   .     S
Cu500  Cu523   2.530   .     S
Cu500  Zn501   2.530   .     S
Cu500  Zn662   2.691   .     S
Cu500  Cu614   2.659   .     S
Cu500  Cu606   2.687   .     S
Zn501  Cu527   2.530   .     S
Zn501  Cu526   2.530   .     S
Zn501  Cu504   2.530   .     S
Zn501  Cu502   2.530   .     S
Zn501  Cu578   2.686   .     S
Zn501  Cu604   2.693   .     S
Zn501  Cu614   2.641   .     S
Cu502  Cu503   2.530   .     S
Cu502  Cu504   2.530   .     S
Cu502  Zn581   2.687   .     S
Cu502  Cu604   2.581   .     S
Cu502  Cu709   2.661   .     S
Cu503  Cu504   2.530   .     S
Cu503  Cu709   2.560   .     S
Cu503  Zn677   2.789   .     S
Cu504  Cu527   2.530   .     S
Cu504  Cu604   2.731   .     S
Zn505  Cu508   2.530   .     S
Zn505  Cu531   2.530   .     S
Zn505  Cu530   2.530   .     S
Zn505  Cu506   2.530   .     S
Zn505  Cu720   2.551   .     S
Zn505  Cu661   2.673   .     S
Zn505  Cu638   2.654   .     S
Cu506  Cu507   2.530   .     S
Cu506  Cu508   2.530   .     S
Cu506  Cu661   2.635   .     S
Cu506  Zn635   2.662   .     S
Cu506  Cu591   2.496   .     S
Cu507  Cu510   2.530   .     S
Cu507  Cu508   2.530   .     S
Cu507  Zn509   2.530   .     S
Cu507  Cu700   2.644   .     S
Cu507  Cu591   2.603   .     S
Cu507  Zn628   2.524   .     S
Cu508  Zn509   2.530   .     S
Cu508  Cu534   2.530   .     S
Cu508  Cu531   2.530   .     S
Cu508  Zn695   2.826   .     S
Cu508  Cu700   2.596   .     S
Cu508  Cu661   2.771   .     S
Zn509  Cu512   2.530   .     S
Zn509  Cu535   2.530   .     S
Zn509  Cu534   2.530   .     S
Zn509  Cu510   2.530   .     S
Zn509  Cu676   2.664   .     S
Zn509  Cu653   2.537   .     S
Zn509  Cu700   2.708   .     S
Cu510  Cu511   2.530   .     S
Cu510  Cu512   2.530   .     S
Cu510  Cu602   2.663   .     S
Cu510  Zn628   2.549   .     S
Cu511  Cu514   2.530   .     S
Cu511  Cu512   2.530   .     S
Cu511  Zn513   2.530   .     S
Cu511  Cu705   2.748   .     S
Cu511  Zn693   2.551   .     S
Cu511  Cu602   2.772   .     S
Cu512  Zn513   2.530   .     S
Cu512  Cu538   2.530   .     S
Cu512  Cu535   2.530   .     S
Cu512  Cu705   2.700   .     S
Zn513  Cu516   2.530   .     S
Zn513  Cu538   2.530   .     S
Zn513  Cu539   2.530   .     S
Zn513  Cu514   2.530   .     S
Zn513  Cu701   2.655   .     S
Zn513  Cu705   2.767   .     S
Zn513  Cu580   2.661   .     S
Cu514  Cu515   2.530   .     S
Cu514  Cu516   2.530   .     S
Cu514  Cu580   2.660   .     S
Cu514  Cu707   2.430   .     S
Cu515  Cu518   2.530   .     S
Cu515  Zn517   2.530   .     S
Cu515  Cu516   2.530   .     S
Cu515  Cu596   2.570   .     S
Cu515  Zn603   2.510   .     S
Cu516  Zn517   2.530   .     S
Cu516  Cu539   2.530   .     S
Cu516  Cu542   2.530   .     S
Cu516  Zn672   2.681   .     S
Cu516  Cu580   2.653   .     S
Cu516  Cu596   2.612   .     S
Zn517  Cu520   2.530   .     S
Zn517  Cu542   2.530   .     S
Zn517  Cu543   2.530   .     S
Zn517  Cu518   2.530   .     S
Zn517  Cu694   2.586   .     S
Zn517  Cu596   2.597   .     S
Zn517  Cu708   2.534   .     S
Cu518  Cu519   2.530   .     S
Cu518  Cu520   2.530   .     S
Cu518  Cu708   2.591   .     S
Cu518  Zn603   2.611   .     S
Cu519  Cu522   2.530   .     S
Cu519  Zn521   2.530   .     S
Cu519  Cu520   2.530   .     S
Cu519  Cu647   2.532   .     S
Cu519  Zn673   2.588   .     S
Cu519  Cu710   2.719   .     S
Cu520  Zn521   2.530   .     S
Cu520  Cu543   2.530   .     S
Cu520  Cu546   2.530   .     S
Cu520  Zn699   2.570   .     S
Cu520  Cu708   2.466   .     S
Cu520  Cu647   2.658   .     S
Zn521  Cu524   2.530   .     S
Zn521  Cu546   2.530   .     S
Zn521  Cu547   2.530   .     S
Zn521  Cu522   2.530   .     S
Zn521  Cu706   2.404   .     S
Zn521  Cu647   2.670   .     S
Zn521  Cu685   2.682   .     S
Cu522  Cu523   2.530   .     S
Cu522  Cu524   2.530   .     S
Cu522  Cu685   2.601   .     S
Cu522  Zn673   2.610   .     S
Cu522  Cu629   2.712   .     S
Cu523  Cu526   2.530   .     S
Cu523  Cu524   2.530   .     S
Cu523  Zn525   2.530   .     S
Cu523  Cu585   2.548   .     S
Cu523  Cu629   2.660   .     S
Cu523  Zn662   2.659   .     S
Cu524  Zn525   2.530   .     S
Cu524  Cu550   2.530   .     S
Cu524  Cu547   2.530   .     S
Cu524  Zn652   2.586   .     S
Cu524  Cu585   2.533   .     S
Cu524  Cu685   2.521   .     S
Zn525  Cu528   2.530   .     S
Zn525  Cu551   2.530   .     S
Zn525  Cu550   2.530   .     S
Zn525  Cu526   2.530   .     S
Zn525  Cu598   2.609   .     S
Zn525  Cu616   2.730   .     S
Zn525  Cu585   2.559   .     S
Cu526  Cu527   2.530   .     S
Cu526  Cu528   2.530   .     S
Cu526  Cu616   2.879   .     S
Cu526  Zn662   2.559   .     S
Cu526  Cu578   2.649   .     S
Cu527  Cu528   2.530   .     S
Cu527  Cu578   2.737   .     S
Cu528  Cu551   2.530   .     S
Cu528  Zn586   2.656   .     S
Cu528  Cu616   2.739   .     S
Zn529  Cu532   2.530   .     S
Zn529  Cu555   2.530   .     S
Zn529  Cu554   2.530   .     S
Zn529  Cu530   2.530   .     S
Zn529  Cu582   2.627   .     S
Zn529  Cu639   2.701   .     S
Zn529  Cu646   2.583   .     S
Cu530  Cu531   2.530   .     S
Cu530  Cu532   2.530   .     S
Cu530  Cu639   2.665   .     S
Cu530  Cu720   2.586   .     S
Cu531  Cu534   2.530   .     S
Cu531  Cu532   2.530   .     S
Cu531  Zn533   2.530   .     S
Cu531  Cu688   2.825   .     S
Cu531  Zn695   2.845   .     S
Cu532  Zn533   2.530   .     S
Cu532  Cu558   2.530   .     S
Cu532  Cu555   2.530   .     S
Cu532  Zn601   2.619   .     S
Cu532  Cu688   2.864   .     S
Cu532  Cu639   2.715   .     S
Zn533  Cu536   2.530   .     S
Zn533  Cu559   2.530   .     S
Zn533  Cu558   2.530   .     S
Zn533  Cu534   2.530   .     S
Zn533  Cu686   2.577   .     S
Zn533  Cu719   2.623   .     S
Zn533  Cu688   2.885   .     S
Cu534  Cu535   2.530   .     S
Cu534  Cu536   2.530   .     S
Cu534  Cu719   2.705   .     S
Cu534  Zn695   2.867   .     S
Cu534  Cu676   2.601   .     S
Cu535  Cu538   2.530   .     S
Cu535  Cu536   2.530   .     S
Cu535  Zn537   2.530   .     S
Cu535  Cu649   2.824   .     S
Cu535  Cu676   2.545   .     S
Cu535  Zn713   2.570   .     S
Cu536  Zn537   2.530   .     S
Cu536  Cu562   2.530   .     S
Cu536  Cu559   2.530   .     S
Cu536  Cu649   2.741   .     S
Cu536  Zn666   2.712   .     S
Cu536  Cu719   2.747   .     S
Zn537  Cu540   2.530   .     S
Zn537  Cu563   2.530   .     S
Zn537  Cu562   2.530   .     S
Zn537  Cu538   2.530   .     S
Zn537  Cu636   2.616   .     S
Zn537  Cu649   2.704   .     S
Zn537  Cu663   2.725   .     S
Cu538  Cu539   2.530   .     S
Cu538  Cu540   2.530   .     S
Cu538  Cu636   2.646   .     S
Cu538  Cu701   2.688   .     S
Cu539  Cu542   2.530   .     S
Cu539  Zn541   2.530   .     S
Cu539  Cu540   2.530   .     S
Cu539  Cu595   2.581   .     S
Cu539  Zn672   2.660   .     S
Cu539  Cu701   2.517   .     S
Cu540  Zn541   2.530   .     S
Cu540  Cu563   2.530   .     S
Cu540  Cu566   2.530   .     S
Cu540  Zn619   2.694   .     S
Cu540  Cu636   2.507   .     S
Cu540  Cu595   2.500   .     S
Zn541  Cu544   2.530   .     S
Zn541  Cu566   2.530   .     S
Zn541  Cu567   2.530   .     S
Zn541  Cu542   2.530   .     S
Zn541  Cu595   2.454   .     S
Zn541  Cu674   2.704   .     S
Zn541  Cu665   2.679   .     S
Cu542  Cu543   2.530   .     S
Cu542  Cu544   2.530   .     S
Cu542  Cu665   2.716   .     S
Cu542  Cu694   2.678   .     S
Cu542  Zn672   2.526   .     S
Cu543  Cu546   2.530   .     S
Cu543  Zn545   2.530   .     S
Cu543  Cu544   2.530   .     S
Cu543  Cu671   2.602   .     S
Cu543  Zn699   2.771   .     S
Cu543  Cu694   2.682   .     S
Cu544  Zn545   2.530   .     S
Cu544  Cu567   2.530   .     S
Cu544  Cu570   2.530   .     S
Cu544  Cu665   2.601   .     S
Cu544  Zn690   2.760   .     S
Cu544  Cu671   2.650   .     S
Zn545  Cu548   2.530   .     S
Zn545  Cu570   2.530   .     S
Zn545  Cu571   2.530   .     S
Zn545  Cu546   2.530   .     S
Zn545  Cu671   2.479   .     S
Zn545  Cu702   2.729   .     S
Zn545  Cu623   2.569   .     S
Cu546  Cu547   2.530   .     S
Cu546  Cu548   2.530   .     S
Cu546  Cu623   2.594   .     S
Cu546  Cu706   2.478   .     S
Cu546  Zn699   2.647   .     S
Cu547  Cu550   2.530   .     S
Cu547  Cu548   2.530   .     S
Cu547  Zn549   2.530   .     S
Cu547  Cu683   2.500   .     S
Cu547  Cu706   2.474   .     S
Cu547  Zn652   2.554   .     S
Cu548  Zn549   2.530   .     S
Cu548  Cu571   2.530   .     S
Cu548  Cu574   2.530   .     S
Cu548  Cu623   2.563   .     S
Cu548  Zn659   2.753   .     S
Cu548  Cu683   2.540   .     S
Zn549  Cu552   2.530   .     S
Zn549  Cu575   2.530   .     S
Zn549  Cu574   2.530   .     S
Zn549  Cu550   2.530   .     S
Zn549  Cu617   2.591   .     S
Zn549  Cu626   2.586   .     S
Zn549  Cu683   2.663   .     S
Cu550  Cu551   2.530   .     S
Cu550  Cu552   2.530   .     S
Cu550  Cu617   2.593   .     S
Cu550  Zn652   2.548   .     S
Cu550  Cu598   2.592   .     S
Cu551  Cu552   2.530   .     S
Cu551  Cu598   2.561   .     S
Cu551  Zn586   2.622   .     S
Cu552  Cu575   2.530   .     S
Cu552  Zn680   2.563   .     S
Cu552  Cu617   2.520   .     S
Zn553  Cu554   2.530   .     S
Zn553  Cu556   2.530   .     S
Zn553  Cu627   2.437   .     S
Zn553  Cu692   2.610   .     S
Cu554  Cu555   2.530   .     S
Cu554  Cu556   2.530   .     S
Cu554  Cu627   2.403   .     S
Cu554  Cu582   2.665   .     S
Cu555  Cu556   2.530   .     S
Cu555  Zn557   2.530   .     S
Cu555  Cu558   2.530   .     S
Cu555  Cu634   2.582   .     S
Cu555  Cu582   2.756   .     S
Cu556  Zn557   2.530   .     S
Cu556  Zn631   2.600   .     S
Cu556  Cu634   2.632   .     S
Cu556  Cu627   2.392   .     S
Zn557  Cu558   2.530   .     S
Zn557  Cu560   2.530   .     S
Zn557  Cu605   2.625   .     S
Zn557  Cu634   2.711   .     S
Cu558  Cu559   2.530   .     S
Cu558  Cu560   2.530   .     S
Cu558  Cu689   2.635   .     S
Cu558  Cu686   2.581   .     S
Cu559  Cu560   2.530   .     S
Cu559  Zn561   2.530   .     S
Cu559  Cu562   2.530   .     S
Cu559  Cu613   2.649   .     S
Cu559  Cu686   2.665   .     S
Cu559  Zn666   2.681   .     S
Cu560  Zn561   2.530   .     S
Cu560  Zn670   2.660   .     S
Cu560  Cu613   2.634   .     S
Zn561  Cu562   2.530   .     S
Zn561  Cu564   2.530   .     S
Zn561  Cu648   2.743   .     S
Zn561  Cu624   2.594   .     S
Zn561  Cu613   2.753   .     S
Cu562  Cu563   2.530   .     S
Cu562  Cu564   2.530   .     S
Cu562  Cu624   2.630   .     S
Cu562  Cu663   2.612   .     S
Cu562  Zn666   2.713   .     S
Cu563  Cu564   2.530   .     S
Cu563  Zn565   2.530   .     S
Cu563  Cu566   2.530   .     S
Cu563  Cu600   2.632   .     S
Cu563  Zn619   2.635   .     S
Cu563  Cu663   2.578   .     S
Cu564  Zn565   2.530   .     S
Cu564  Cu600   2.451   .     S
Cu564  Cu624   2.594   .     S
Zn565  Cu566   2.530   .     S
Zn565  Cu568   2.530   .     S
Zn565  Cu600   2.508   .     S
Zn565  Cu650   2.728   .     S
Cu566  Cu568   2.530   .     S
Cu566  Cu567   2.530   .     S
Cu566  Cu650   2.899   .     S
Cu566  Cu674   2.759   .     S
Cu566  Zn619   2.551   .     S
Cu567  Zn569   2.530   .     S
Cu567  Cu568   2.530   .     S
Cu567  Cu570   2.530   .     S
Cu567  Cu696   2.650   .     S
Cu567  Zn690   2.653   .     S
Cu567  Cu674   2.696   .     S
Cu568  Zn569   2.530   .     S
Cu568  Cu696   2.659   .     S
Zn569  Cu570   2.530   .     S
Zn569  Cu572   2.530   .     S
Zn569  Cu696   2.668   .     S
Zn569  Cu607   2.673   .     S
Cu570  Cu572   2.530   .     S
Cu570  Cu571   2.530   .     S
Cu570  Cu607   2.700   .     S
Cu570  Cu702   2.633   .     S
Cu570  Zn690   2.540   .     S
Cu571  Zn573   2.530   .     S
Cu571  Cu574   2.530   .     S
Cu571  Cu572   2.530   .     S
Cu571  Cu656   2.771   .     S
Cu571  Zn659   2.612   .     S
Cu571  Cu702   2.473   .     S
Cu572  Zn573   2.530   .     S
Cu572  Zn621   2.705   .     S
Cu572  Cu607   2.572   .     S
Cu572  Cu656   2.681   .     S
Zn573  Cu574   2.530   .     S
Zn573  Cu576   2.530   .     S
Zn573  Cu622   2.627   .     S
Zn573  Cu656   2.615   .     S
Cu574  Cu575   2.530   .     S
Cu574  Cu576   2.530   .     S
Cu574  Cu622   2.566   .     S
Cu574  Zn659   2.581   .     S
Cu574  Cu626   2.735   .     S
Cu575  Cu576   2.530   .     S
Cu575  Cu626   2.664   .     S
Cu575  Zn680   2.553   .     S
Cu576  Zn655   2.607   .     S
Cu576  Cu622   2.489   .     S
Zn577  Cu608   2.659   .     S
Zn577  Cu712   2.471   .     S
Zn577  Cu641   2.596   .     S
Zn577  Cu703   2.684   .     S
Zn577  Cu640   2.430   .     S
Zn577  Cu657   2.471   .     S
Zn577  Cu735   2.556   .     S
Zn577  Cu753   2.603   .     S
Cu578  Zn662   2.337   .     S
Cu578  Cu616   2.663   .     S
Cu578  Cu604   2.686   .     S
Cu578  Cu614   2.565   .     S
Cu578  Cu722   2.579   .     S
Cu578  Cu812   2.422   .     S
Cu579  Cu710   2.661   .     S
Cu579  Zn603   2.666   .     S
Cu579  Zn592   2.533   .     S
Cu579  Cu611   2.489   .     S
Cu579  Cu664   2.468   .     S
Cu579  Cu678   2.562   .     S
Cu579  Cu760   2.451   .     S
Cu579  Zn747   2.575   .     S
Cu580  Cu705   2.613   .     S
Cu580  Cu596   2.538   .     S
Cu580  Zn672   2.683   .     S
Cu580  Cu701   2.502   .     S
Cu580  Cu707   2.448   .     S
Cu580  Zn693   2.483   .     S
Cu580  Cu789   2.676   .     S
Cu580  Zn764   2.530   .     S
Cu580  Cu802   2.833   .     S
Zn581  Cu604   2.463   .     S
Zn581  Cu597   2.536   .     S
Zn581  Cu614   2.509   .     S
Zn581  Cu709   2.644   .     S
Zn581  Cu615   2.487   .     S
Zn581  Cu588   2.470   .     S
Zn581  Zn793   2.648   .     S
Zn581  Cu738   2.364   .     S
Cu582  Cu639   2.531   .     S
Cu582  Cu646   2.399   .     S
Cu582  Zn601   2.677   .     S
Cu582  Cu634   2.532   .     S
Cu582  Cu627   2.564   .     S
Cu582  Cu751   2.416   .     S
Cu582  Cu798   2.515   .     S
Cu583  Cu615   2.387   .     S
Cu583  Cu630   2.543   .     S
Cu583  Cu709   2.494   .     S
Cu583  Zn677   2.679   .     S
Cu583  Zn625   2.390   .     S
Cu583  Cu660   2.463   .     S
Cu583  Cu734   2.583   .     S
Cu583  Zn783   2.602   .     S
Cu584  Cu714   2.487   .     S
Cu584  Cu668   2.437   .     S
Cu584  Cu610   2.616   .     S
Cu584  Zn625   2.344   .     S
Cu584  Cu660   2.509   .     S
Cu584  Cu810   2.521   .     S
Cu584  Cu743   2.478   .     S
Cu585  Cu685   2.339   .     S
Cu585  Cu616   2.568   .     S
Cu585  Zn652   2.547   .     S
Cu585  Cu598   2.591   .     S
Cu585  Cu629   2.540   .     S
Cu585  Zn662   2.519   .     S
Cu585  Zn776   2.589   .     S
Cu585  Cu784   2.591   .     S
Zn586  Cu598   2.568   .     S
Zn586  Cu616   2.490   .     S
Zn586  Zn781   2.614   .     S
Cu587  Cu658   2.466   .     S
Cu587  Cu684   2.616   .     S
Cu587  Cu832   2.602   .     S
Cu588  Cu637   2.643   .     S
Cu588  Cu615   2.597   .     S
Cu588  Cu597   2.483   .     S
Cu588  Zn651   2.515   .     S
Cu588  Cu654   2.555   .     S
Cu588  Cu721   2.490   .     S
Cu588  Cu755   2.547   .     S
Cu589  Zn669   2.558   .     S
Cu589  Cu681   2.654   .     S
Cu589  Cu633   2.363   .     S
Cu589  Cu717   2.444   .     S
Cu589  Zn632   2.446   .     S
Cu589  Cu788   2.596   .     S
Cu589  Zn731   2.819   .     S
Cu590  Zn594   2.579   .     S
Cu590  Zn632   2.439   .     S
Cu590  Cu716   2.520   .     S
Cu590  Cu609   2.524   .     S
Cu590  Cu704   2.509   .     S
Cu590  Cu633   2.623   .     S
Cu590  Zn799   2.699   .     S
Cu590  Cu732   2.443   .     S
Cu590  Cu790   2.564   .     S
Cu591  Zn635   2.545   .     S
Cu591  Zn628   2.613   .     S
Cu591  Cu700   2.500   .     S
Cu591  Cu661   2.425   .     S
Cu591  Cu612   2.554   .     S
Cu591  Cu645   2.615   .     S
Cu591  Zn779   2.701   .     S
Cu591  Cu749   2.714   .     S
Zn592  Cu611   2.576   .     S
Zn592  Cu678   2.639   .     S
Zn592  Cu718   2.567   .     S
Zn592  Cu716   2.422   .     S
Zn592  Cu609   2.478   .     S
Zn592  Cu850   2.439   .     S
Zn592  Cu745   2.461   .     S
Cu593  Zn675   2.632   .     S
Cu593  Cu608   2.439   .     S
Cu593  Cu712   2.498   .     S
Cu593  Cu664   2.532   .     S
Cu593  Cu707   2.579   .     S
Cu593  Zn693   2.663   .     S
Cu593  Cu727   2.542   .     S
Cu593  Cu797   2.439   .     S
Cu593  Zn746   2.831   .     S
Zn594  Cu698   2.583   .     S
Zn594  Cu599   2.480   .     S
Zn594  Cu716   2.500   .     S
Zn594  Cu667   2.554   .     S
Zn594  Cu704   2.533   .     S
Zn594  Cu785   2.664   .     S
Zn594  Cu796   2.742   .     S
Zn594  Cu732   2.604   .     S
Cu595  Zn619   2.515   .     S
Cu595  Cu636   2.467   .     S
Cu595  Cu665   2.573   .     S
Cu595  Zn672   2.593   .     S
Cu595  Cu701   2.522   .     S
Cu595  Cu835   2.568   .     S
Cu595  Zn748   2.576   .     S
Cu596  Cu708   2.586   .     S
Cu596  Cu694   2.458   .     S
Cu596  Zn672   2.602   .     S
Cu596  Zn603   2.459   .     S
Cu596  Cu707   2.474   .     S
Cu596  Cu813   2.390   .     S
Cu596  Zn764   2.509   .     S
Cu597  Cu614   2.545   .     S
Cu597  Cu606   2.529   .     S
Cu597  Zn687   2.667   .     S
Cu597  Cu637   2.463   .     S
Cu597  Zn793   2.949   .     S
Cu597  Cu762   2.513   .     S
Cu597  Cu721   2.468   .     S
Cu598  Zn652   2.556   .     S
Cu598  Cu617   2.514   .     S
Cu598  Cu616   2.393   .     S
Cu598  Cu733   2.437   .     S
Cu598  Zn781   3.150   .     S
Cu598  Cu756   2.910   .     S
Cu599  Cu697   2.490   .     S
Cu599  Cu716   2.762   .     S
Cu599  Cu611   2.573   .     S
Cu599  Zn675   2.489   .     S
Cu599  Cu698   2.468   .     S
Cu599  Cu763   2.558   .     S
Cu599  Cu785   2.568   .     S
Cu599  Zn806   2.511   .     S
Cu600  Cu624   2.480   .     S
Cu600  Cu650   2.582   .     S
Cu600  Zn619   2.654   .     S
Cu600  Cu663   2.506   .     S
Cu600  Cu752   2.731   .     S
Cu600  Zn725   2.698   .     S
Zn601  Cu688   2.456   .     S
Zn601  Cu639   2.508   .     S
Zn601  Cu686   2.395   .     S
Zn601  Cu689   2.535   .     S
Zn601  Cu634   2.606   .     S
Zn601  Cu846   2.549   .     S
Zn601  Cu759   2.614   .     S
Cu602  Zn628   2.447   .     S
Cu602  Zn693   2.549   .     S
Cu602  Cu653   2.699   .     S
Cu602  Cu705   2.617   .     S
Cu602  Cu641   2.430   .     S
Cu602  Cu608   2.477   .     S
Cu602  Zn801   2.594   .     S
Cu602  Cu726   2.598   .     S
Zn603  Cu707   2.488   .     S
Zn603  Cu710   2.508   .     S
Zn603  Cu708   2.728   .     S
Zn603  Cu664   2.565   .     S
Zn603  Cu791   2.497   .     S
Zn603  Cu852   2.737   .     S
Cu604  Cu614   2.470   .     S
Cu604  Cu709   2.531   .     S
Cu604  Cu812   2.496   .     S
Cu604  Cu828   2.411   .     S
Cu605  Zn631   2.400   .     S
Cu605  Zn670   2.507   .     S
Cu605  Cu689   2.521   .     S
Cu605  Cu634   2.590   .     S
Cu605  Cu820   2.740   .     S
Cu606  Zn687   2.546   .     S
Cu606  Cu644   2.608   .     S
Cu606  Cu614   2.545   .     S
Cu606  Cu629   2.545   .     S
Cu606  Zn662   2.747   .     S
Cu606  Cu761   2.735   .     S
Cu606  Cu762   2.468   .     S
Cu607  Cu696   2.646   .     S
Cu607  Cu656   2.496   .     S
Cu607  Zn621   2.469   .     S
Cu607  Cu702   2.460   .     S
Cu607  Zn690   2.433   .     S
Cu607  Cu765   2.512   .     S
Cu607  Cu821   2.536   .     S
Cu608  Cu712   2.526   .     S
Cu608  Cu641   2.652   .     S
Cu608  Zn693   2.467   .     S
Cu608  Cu726   2.688   .     S
Cu608  Zn746   2.668   .     S
Cu609  Cu691   2.477   .     S
Cu609  Cu716   2.442   .     S
Cu609  Cu718   2.624   .     S
Cu609  Zn632   2.420   .     S
Cu609  Cu826   2.494   .     S
Cu609  Zn799   2.575   .     S
Cu610  Cu620   2.549   .     S
Cu610  Cu660   2.538   .     S
Cu610  Zn715   2.532   .     S
Cu610  Cu771   2.634   .     S
Cu610  Zn816   2.557   .     S
Cu611  Cu664   2.555   .     S
Cu611  Zn675   2.523   .     S
Cu611  Cu716   2.555   .     S
Cu611  Zn747   2.606   .     S
Cu611  Cu763   2.557   .     S
Cu611  Cu745   2.523   .     S
Cu612  Cu645   2.529   .     S
Cu612  Cu641   2.527   .     S
Cu612  Cu703   2.585   .     S
Cu612  Zn628   2.504   .     S
Cu612  Cu749   2.529   .     S
Cu612  Zn804   2.624   .     S
Cu613  Cu689   2.529   .     S
Cu613  Cu624   2.660   .     S
Cu613  Zn670   2.473   .     S
Cu613  Cu648   2.501   .     S
Cu613  Cu686   2.512   .     S
Cu613  Zn666   2.516   .     S
Cu613  Cu723   2.664   .     S
Cu613  Zn818   2.564   .     S
Cu613  Cu778   2.593   .     S
Cu614  Zn662   2.672   .     S
Cu614  Cu825   2.604   .     S
Cu614  Cu812   2.961   .     S
Cu614  Zn793   2.559   .     S
Cu615  Cu709   2.486   .     S
Cu615  Cu654   2.509   .     S
Cu615  Zn625   2.630   .     S
Cu615  Cu738   2.603   .     S
Cu615  Cu740   2.574   .     S
Cu616  Zn662   2.558   .     S
Cu616  Cu756   2.429   .     S
Cu617  Cu626   2.375   .     S
Cu617  Cu683   2.732   .     S
Cu617  Zn680   2.427   .     S
Cu617  Zn652   2.565   .     S
Cu617  Cu739   2.647   .     S
Cu617  Cu733   2.691   .     S
Cu618  Cu658   2.622   .     S
Cu618  Cu711   2.542   .     S
Cu618  Zn848   2.693   .     S
Zn619  Cu636   2.536   .     S
Zn619  Cu663   2.581   .     S
Zn619  Cu674   2.520   .     S
Zn619  Cu650   2.560   .     S
Zn619  Cu809   2.468   .     S
Zn619  Cu729   2.503   .     S
Cu620  Zn816   2.713   .     S
Zn621  Cu656   2.503   .     S
Zn621  Cu770   2.399   .     S
Cu622  Cu656   2.608   .     S
Cu622  Zn655   2.446   .     S
Cu622  Zn659   2.434   .     S
Cu622  Cu626   2.629   .     S
Cu622  Cu775   2.626   .     S
Cu622  Cu831   2.565   .     S
Cu623  Zn659   2.682   .     S
Cu623  Cu671   2.362   .     S
Cu623  Cu702   2.616   .     S
Cu623  Cu683   2.403   .     S
Cu623  Cu706   2.631   .     S
Cu623  Zn699   2.651   .     S
Cu623  Cu758   2.902   .     S
Cu623  Cu730   2.569   .     S
Cu624  Cu648   2.539   .     S
Cu624  Cu663   2.448   .     S
Cu624  Zn666   2.570   .     S
Cu624  Cu736   2.628   .     S
Cu624  Zn725   2.708   .     S
Cu624  Cu778   2.661   .     S
Zn625  Cu654   2.538   .     S
Zn625  Cu660   2.393   .     S
Zn625  Cu668   2.380   .     S
Zn625  Cu810   2.484   .     S
Zn625  Cu740   2.612   .     S
Cu626  Cu683   2.624   .     S
Cu626  Zn659   2.595   .     S
Cu626  Zn680   2.419   .     S
Cu626  Cu831   2.467   .     S
Cu626  Cu739   2.487   .     S
Cu627  Cu692   2.544   .     S
Cu627  Cu634   2.422   .     S
Cu627  Zn631   2.433   .     S
Cu627  Cu836   2.720   .     S
Cu627  Cu751   2.684   .     S
Zn628  Cu653   2.584   .     S
Zn628  Cu700   2.607   .     S
Zn628  Cu641   2.447   .     S
Zn628  Cu851   2.660   .     S
Zn628  Cu737   2.723   .     S
Cu629  Zn673   2.609   .     S
Cu629  Zn662   2.583   .     S
Cu629  Cu685   2.519   .     S
Cu629  Cu644   2.580   .     S
Cu629  Zn776   2.694   .     S
Cu629  Cu849   2.525   .     S
Cu629  Cu761   2.687   .     S
Cu630  Zn677   2.573   .     S
Cu630  Cu660   2.413   .     S
Cu630  Zn715   2.405   .     S
Cu630  Cu772   2.623   .     S
Zn631  Cu634   2.457   .     S
Zn631  Cu833   2.400   .     S
Zn632  Cu717   2.489   .     S
Zn632  Cu691   2.509   .     S
Zn632  Cu633   2.618   .     S
Zn632  Cu742   2.620   .     S
Zn632  Cu790   2.540   .     S
Cu633  Cu704   2.694   .     S
Cu633  Cu790   2.619   .     S
Cu633  Zn731   2.655   .     S
Cu634  Cu689   2.489   .     S
Cu634  Cu833   2.444   .     S
Cu634  Cu846   2.515   .     S
Zn635  Cu661   2.526   .     S
Zn635  Cu638   2.674   .     S
Zn635  Cu645   2.569   .     S
Cu636  Cu649   2.607   .     S
Cu636  Cu663   2.619   .     S
Cu636  Cu701   2.597   .     S
Cu636  Zn713   2.577   .     S
Cu636  Cu729   2.514   .     S
Cu636  Zn748   2.508   .     S
Cu636  Cu750   2.726   .     S
Cu637  Cu691   2.532   .     S
Cu637  Zn687   2.514   .     S
Cu637  Cu717   2.567   .     S
Cu637  Zn651   2.441   .     S
Cu637  Cu782   2.659   .     S
Cu638  Cu661   2.581   .     S
Cu638  Cu720   2.483   .     S
Cu638  Cu830   2.466   .     S
Cu639  Cu646   2.485   .     S
Cu639  Cu688   2.527   .     S
Cu639  Cu720   2.529   .     S
Cu639  Cu798   2.559   .     S
Cu639  Zn843   2.459   .     S
Cu640  Cu657   2.523   .     S
Cu640  Cu697   2.484   .     S
Cu640  Cu712   2.560   .     S
Cu640  Zn643   2.572   .     S
Cu640  Cu684   2.454   .     S
Cu640  Cu753   2.550   .     S
Cu640  Cu768   2.450   .     S
Cu641  Cu703   2.675   .     S
Cu641  Cu737   2.606   .     S
Cu641  Cu735   2.681   .     S
Cu642  Cu682   2.559   .     S
Cu642  Cu681   2.586   .     S
Cu642  Cu668   2.579   .     S
Cu642  Zn679   2.440   .     S
Cu642  Zn651   2.660   .     S
Cu642  Cu654   2.534   .     S
Cu642  Cu744   2.534   .     S
Cu642  Cu724   2.591   .     S
Cu642  Cu769   2.533   .     S
Zn643  Cu684   2.392   .     S
Zn643  Cu698   2.498   .     S
Zn643  Cu697   2.531   .     S
Zn643  Cu658   2.648   .     S
Zn643  Cu711   2.546   .     S
Zn643  Cu768   2.660   .     S
Zn643  Cu819   2.890   .     S
Zn643  Cu811   2.518   .     S
Cu644  Cu678   2.552   .     S
Cu644  Cu718   2.470   .     S
Cu644  Zn687   2.494   .     S
Cu644  Zn673   2.481   .     S
Cu644  Zn834   2.625   .     S
Cu644  Cu761   2.964   .     S
Cu647  Cu708   2.466   .     S
Cu647  Cu685   2.712   .     S
Cu647  Zn699   2.450   .     S
Cu647  Zn673   2.439   .     S
Cu647  Cu710   2.486   .     S
Cu647  Cu837   2.660   .     S
Cu647  Zn787   2.668   .     S
Cu647  Cu777   2.561   .     S
Cu648  Zn670   2.499   .     S
Cu648  Cu736   2.508   .     S
Cu648  Cu723   2.577   .     S
Cu649  Cu663   2.557   .     S
Cu649  Zn666   2.475   .     S
Cu649  Cu676   2.546   .     S
Cu649  Zn713   2.463   .     S
Cu649  Cu805   2.633   .     S
Cu649  Zn823   2.751   .     S
Cu649  Cu750   2.501   .     S
Cu650  Cu696   2.557   .     S
Cu650  Cu674   2.780   .     S
Cu650  Cu809   2.704   .     S
Cu650  Zn815   2.435   .     S
Cu650  Cu752   2.524   .     S
Zn651  Cu717   2.518   .     S
Zn651  Cu654   2.826   .     S
Zn651  Cu681   2.631   .     S
Zn651  Cu744   2.520   .     S
Zn651  Cu755   2.637   .     S
Zn651  Cu838   2.662   .     S
Zn652  Cu706   2.538   .     S
Zn652  Cu683   2.465   .     S
Zn652  Cu685   2.493   .     S
Zn652  Zn840   2.628   .     S
Zn652  Cu784   2.597   .     S
Cu653  Cu700   2.465   .     S
Cu653  Cu705   2.645   .     S
Cu653  Cu676   2.427   .     S
Cu653  Zn713   2.638   .     S
Cu653  Cu827   2.536   .     S
Cu653  Cu851   2.643   .     S
Cu653  Zn801   2.733   .     S
Cu654  Cu668   2.380   .     S
Cu654  Cu724   2.532   .     S
Cu654  Cu740   2.803   .     S
Cu654  Cu755   2.529   .     S
Cu656  Zn659   2.476   .     S
Cu656  Cu702   2.435   .     S
Cu656  Cu770   2.442   .     S
Cu656  Zn842   2.581   .     S
Cu657  Cu703   2.386   .     S
Cu657  Cu684   2.660   .     S
Cu657  Cu786   2.524   .     S
Cu657  Zn817   2.483   .     S
Cu658  Cu711   2.563   .     S
Cu658  Cu684   2.561   .     S
Cu658  Cu819   2.309   .     S
Cu658  Zn848   2.381   .     S
Zn659  Cu702   2.400   .     S
Zn659  Cu683   2.737   .     S
Zn659  Zn842   2.632   .     S
Zn659  Cu758   2.529   .     S
Cu660  Zn715   2.532   .     S
Cu660  Cu771   2.543   .     S
Cu660  Zn783   2.790   .     S
Cu661  Cu700   2.519   .     S
Cu661  Cu720   2.539   .     S
Cu661  Zn695   2.635   .     S
Cu661  Cu800   2.449   .     S
Cu661  Zn779   2.600   .     S
Zn662  Cu722   3.238   .     S
Zn662  Zn776   2.607   .     S
Zn662  Cu825   2.543   .     S
Cu663  Zn666   2.603   .     S
Cu663  Zn725   2.610   .     S
Cu663  Cu805   2.749   .     S
Cu663  Cu729   2.575   .     S
Cu664  Zn675   2.601   .     S
Cu664  Cu707   2.677   .     S
Cu664  Zn747   2.569   .     S
Cu664  Cu797   2.747   .     S
Cu665  Zn690   2.641   .     S
Cu665  Cu674   2.433   .     S
Cu665  Cu671   2.625   .     S
Cu665  Cu694   2.670   .     S
Cu665  Zn672   2.490   .     S
Cu665  Cu835   2.568   .     S
Cu665  Cu773   2.837   .     S
Zn666  Cu686   2.587   .     S
Zn666  Cu719   2.575   .     S
Zn666  Cu778   2.541   .     S
Zn666  Cu807   2.684   .     S
Cu667  Cu711   2.582   .     S
Cu667  Cu704   2.473   .     S
Cu667  Cu698   2.486   .     S
Cu667  Cu796   2.602   .     S
Cu667  Zn839   2.601   .     S
Cu667  Cu824   2.906   .     S
Cu668  Zn679   2.567   .     S
Cu668  Cu714   2.546   .     S
Cu668  Cu724   2.559   .     S
Cu668  Cu810   2.775   .     S
Cu668  Cu808   2.597   .     S
Zn669  Cu681   2.450   .     S
Zn669  Cu682   2.662   .     S
Zn669  Cu803   2.532   .     S
Zn670  Cu689   2.430   .     S
Zn670  Cu723   2.596   .     S
Cu671  Cu702   2.671   .     S
Cu671  Zn690   2.696   .     S
Cu671  Zn699   2.698   .     S
Cu671  Cu694   2.756   .     S
Cu671  Cu728   2.674   .     S
Cu671  Zn829   2.527   .     S
Cu671  Cu754   2.501   .     S
Zn672  Cu701   2.492   .     S
Zn672  Cu694   2.397   .     S
Zn672  Cu789   2.644   .     S
Zn672  Cu773   2.455   .     S
Zn673  Cu710   2.634   .     S
Zn673  Cu685   2.674   .     S
Zn673  Cu678   2.528   .     S
Zn673  Cu777   2.614   .     S
Cu674  Zn690   2.588   .     S
Cu674  Cu696   2.504   .     S
Cu674  Cu809   2.572   .     S
Cu674  Cu794   2.561   .     S
Zn675  Cu712   2.499   .     S
Zn675  Cu697   2.372   .     S
Zn675  Cu797   2.712   .     S
Zn675  Cu814   2.703   .     S
Zn675  Cu763   2.505   .     S
Cu676  Zn713   2.411   .     S
Cu676  Zn695   2.632   .     S
Cu676  Cu719   2.562   .     S
Cu676  Cu700   2.722   .     S
Cu676  Zn823   2.746   .     S
Cu676  Cu827   2.668   .     S
Zn677  Cu709   2.468   .     S
Zn677  Cu767   2.424   .     S
Cu678  Cu718   2.527   .     S
Cu678  Cu710   2.527   .     S
Cu678  Zn834   2.584   .     S
Cu678  Cu760   2.455   .     S
Cu678  Cu850   2.675   .     S
Zn679  Cu682   2.517   .     S
Zn679  Cu714   2.558   .     S
Zn679  Cu769   2.704   .     S
Zn680  Zn741   2.739   .     S
Zn680  Cu757   2.608   .     S
Cu681  Cu682   2.418   .     S
Cu681  Cu717   2.673   .     S
Cu681  Cu744   2.665   .     S
Cu681  Cu788   2.615   .     S
Cu681  Cu803   2.860   .     S
Cu682  Cu769   2.684   .     S
Cu682  Cu803   2.808   .     S
Cu683  Cu706   2.436   .     S
Cu683  Cu739   3.244   .     S
Cu683  Cu758   2.707   .     S
Cu683  Zn840   2.572   .     S
Cu684  Zn817   2.469   .     S
Cu684  Cu819   2.548   .     S
Cu685  Cu706   2.556   .     S
Cu685  Cu784   2.695   .     S
Cu685  Cu849   2.612   .     S
Cu685  Cu837   2.644   .     S
Cu686  Cu719   2.441   .     S
Cu686  Cu688   2.525   .     S
Cu686  Cu689   2.580   .     S
Cu686  Zn818   2.528   .     S
Cu686  Cu807   2.667   .     S
Zn687  Cu718   2.425   .     S
Zn687  Cu691   2.500   .     S
Zn687  Cu762   2.763   .     S
Zn687  Cu847   2.605   .     S
Zn687  Cu782   2.487   .     S
Cu688  Cu719   2.431   .     S
Cu688  Cu720   2.554   .     S
Cu688  Zn695   2.507   .     S
Cu688  Cu759   2.566   .     S
Cu688  Zn843   2.731   .     S
Cu688  Cu844   2.519   .     S
Cu689  Cu820   2.755   .     S
Cu689  Cu846   2.778   .     S
Cu689  Zn818   2.447   .     S
Zn690  Cu702   2.576   .     S
Zn690  Cu696   2.415   .     S
Zn690  Cu794   2.497   .     S
Zn690  Cu765   2.654   .     S
Zn690  Zn829   2.554   .     S
Cu691  Cu718   2.518   .     S
Cu691  Cu717   2.500   .     S
Cu691  Cu826   2.581   .     S
Cu691  Cu782   2.646   .     S
Cu691  Cu742   2.684   .     S
Cu692  Cu795   2.433   .     S
Zn693  Cu707   2.585   .     S
Zn693  Cu705   2.421   .     S
Zn693  Cu802   2.643   .     S
Zn693  Cu726   2.880   .     S
Zn693  Cu727   2.506   .     S
Cu694  Zn699   2.667   .     S
Cu694  Cu708   2.386   .     S
Cu694  Cu773   2.756   .     S
Cu694  Cu754   2.560   .     S
Cu694  Cu813   2.506   .     S
Zn695  Cu720   2.560   .     S
Zn695  Cu719   2.540   .     S
Zn695  Cu700   2.471   .     S
Zn695  Cu844   2.533   .     S
Zn695  Cu841   2.536   .     S
Cu696  Cu794   2.486   .     S
Cu696  Cu821   2.664   .     S
Cu696  Zn815   2.583   .     S
Cu697  Cu712   2.478   .     S
Cu697  Cu698   2.711   .     S
Cu697  Zn806   2.694   .     S
Cu697  Cu814   2.456   .     S
Cu697  Cu768   2.723   .     S
Cu698  Cu711   2.423   .     S
Cu698  Zn806   2.663   .     S
Cu698  Cu811   2.644   .     S
Cu698  Cu796   2.544   .     S
Zn699  Cu706   2.416   .     S
Zn699  Cu708   2.338   .     S
Zn699  Cu754   2.609   .     S
Zn699  Cu730   2.720   .     S
Zn699  Zn787   2.588   .     S
Cu700  Cu841   2.656   .     S
Cu700  Cu851   2.548   .     S
Cu701  Zn713   2.769   .     S
Cu701  Cu705   2.702   .     S
Cu701  Cu822   2.760   .     S
Cu701  Cu789   2.513   .     S
Cu702  Cu765   2.558   .     S
Cu703  Zn804   2.483   .     S
Cu703  Cu786   2.482   .     S
Cu704  Cu766   2.622   .     S
Cu704  Zn839   2.852   .     S
Cu705  Zn713   2.644   .     S
Cu705  Cu822   2.556   .     S
Cu705  Zn801   2.607   .     S
Cu706  Cu730   2.590   .     S
Cu706  Cu837   2.756   .     S
Cu707  Zn764   2.744   .     S
Cu707  Cu727   2.709   .     S
Cu707  Cu791   2.545   .     S
Cu708  Cu710   2.570   .     S
Cu708  Zn787   2.649   .     S
Cu708  Cu813   2.750   .     S
Cu708  Cu852   2.881   .     S
Cu709  Cu828   2.688   .     S
Cu709  Cu734   2.577   .     S
Cu710  Cu760   2.530   .     S
Cu710  Cu852   2.646   .     S
Cu710  Cu777   2.605   .     S
Cu711  Cu811   2.602   .     S
Cu711  Cu824   2.628   .     S
Cu712  Zn746   2.707   .     S
Cu712  Cu814   2.575   .     S
Zn713  Cu827   2.590   .     S
Zn713  Cu750   2.663   .     S
Zn713  Cu822   2.784   .     S
Cu714  Cu808   2.487   .     S
Zn715  Cu772   2.544   .     S
Zn715  Cu774   2.528   .     S
Cu716  Cu745   2.671   .     S
Cu716  Zn799   2.583   .     S
Cu716  Cu785   2.594   .     S
Cu717  Cu838   2.662   .     S
Cu717  Cu742   2.650   .     S
Cu717  Cu788   2.697   .     S
Cu718  Cu847   2.725   .     S
Cu718  Cu850   2.716   .     S
Cu718  Cu826   2.682   .     S
Cu719  Cu807   2.617   .     S
Cu719  Cu844   2.863   .     S
Cu719  Zn823   2.732   .     S
Cu720  Zn843   2.626   .     S
Cu720  Cu800   2.537   .     S
Cu721  Cu782   2.792   .     S
Cu721  Zn793   2.777   .     S
Cu721  Cu762   2.546   .     S
Cu721  Cu755   2.459   .     S
Cu721  Cu923   2.824   .     S
Cu721  Zn941   2.533   .     S
Cu722  Cu756   2.377   .     S
Cu722  Zn776   3.198   .     S
Cu722  Zn845   2.497   .     S
Cu722  Cu825   2.897   .     S
Cu722  Cu812   2.525   .     S
Cu722  Cu881   2.483   .     S
Cu722  Cu901   2.643   .     S
Cu722  Cu936   2.590   .     S
Cu723  Cu820   2.533   .     S
Cu723  Cu736   2.709   .     S
Cu723  Zn818   2.615   .     S
Cu723  Cu778   2.528   .     S
Cu723  Cu867   2.436   .     S
Cu723  Cu858   2.659   .     S
Cu724  Cu744   2.813   .     S
Cu724  Cu755   2.473   .     S
Cu724  Cu808   2.626   .     S
Cu724  Cu769   2.673   .     S
Cu724  Zn869   2.519   .     S
Cu724  Cu913   2.672   .     S
Cu724  Zn863   2.615   .     S
Zn725  Cu778   2.683   .     S
Zn725  Cu752   2.625   .     S
Zn725  Cu736   2.564   .     S
Zn725  Cu805   2.545   .     S
Zn725  Cu729   2.586   .     S
Zn725  Cu856   2.611   .     S
Zn725  Cu861   2.550   .     S
Cu726  Cu737   2.652   .     S
Cu726  Zn801   2.499   .     S
Cu726  Cu802   2.619   .     S
Cu726  Zn746   2.503   .     S
Cu726  Cu735   2.654   .     S
Cu726  Cu912   2.405   .     S
Cu726  Cu921   2.692   .     S
Cu726  Zn882   2.528   .     S
Cu727  Cu791   2.553   .     S
Cu727  Zn764   2.756   .     S
Cu727  Cu802   2.505   .     S
Cu727  Cu797   2.410   .     S
Cu727  Cu926   2.576   .     S
Cu727  Zn868   2.561   .     S
Cu727  Cu912   2.621   .     S
Cu728  Zn829   2.653   .     S
Cu728  Cu758   2.459   .     S
Cu728  Cu765   2.738   .     S
Cu728  Zn842   2.838   .     S
Cu728  Cu730   2.486   .     S
Cu728  Cu873   2.598   .     S
Cu728  Cu946   2.586   .     S
Cu728  Cu855   2.636   .     S
Cu729  Cu805   2.709   .     S
Cu729  Zn748   2.461   .     S
Cu729  Cu861   2.730   .     S
Cu729  Cu902   2.740   .     S
Cu729  Cu854   2.607   .     S
Cu730  Zn840   2.552   .     S
Cu730  Cu758   2.702   .     S
Cu730  Cu837   2.526   .     S
Cu730  Cu855   2.553   .     S
Cu730  Cu907   2.648   .     S
Cu730  Cu880   2.661   .     S
Zn731  Cu766   2.765   .     S
Zn731  Cu788   2.561   .     S
Zn731  Cu790   2.460   .     S
Zn731  Cu864   2.459   .     S
Zn731  Cu862   2.528   .     S
Zn731  Cu853   2.547   .     S
Cu732  Cu796   2.843   .     S
Cu732  Cu790   2.510   .     S
Cu732  Zn799   2.499   .     S
Cu732  Cu785   2.622   .     S
Cu732  Cu766   2.494   .     S
Cu732  Zn839   2.874   .     S
Cu732  Cu874   2.461   .     S
Cu732  Cu911   2.761   .     S
Cu732  Cu952   2.837   .     S
Cu733  Zn781   2.624   .     S
Cu733  Zn840   2.663   .     S
Cu733  Cu757   2.734   .     S
Cu733  Cu739   2.744   .     S
Cu733  Cu756   2.550   .     S
Cu733  Cu784   2.603   .     S
Cu733  Cu872   2.854   .     S
Cu733  Cu925   2.679   .     S
Cu733  Cu889   2.666   .     S
Cu734  Cu738   2.715   .     S
Cu734  Cu767   2.488   .     S
Cu734  Cu828   2.612   .     S
Cu734  Zn783   2.474   .     S
Cu734  Cu740   2.470   .     S
Cu734  Cu965   2.476   .     S
Cu734  Cu953   2.607   .     S
Cu734  Cu878   2.498   .     S
Cu735  Zn804   2.565   .     S
Cu735  Zn746   2.644   .     S
Cu735  Cu737   2.566   .     S
Cu735  Cu786   2.670   .     S
Cu735  Cu753   2.480   .     S
Cu735  Zn882   2.480   .     S
Cu735  Cu891   2.649   .     S
Cu735  Cu900   2.580   .     S
Cu736  Cu856   2.734   .     S
Cu736  Cu858   2.409   .     S
Cu737  Cu851   2.541   .     S
Cu737  Zn804   2.548   .     S
Cu737  Zn882   2.578   .     S
Cu737  Cu957   2.781   .     S
Cu737  Cu886   2.580   .     S
Cu738  Cu828   2.637   .     S
Cu738  Zn793   2.531   .     S
Cu738  Cu740   2.492   .     S
Cu738  Cu908   2.711   .     S
Cu738  Cu878   2.648   .     S
Cu738  Cu865   2.506   .     S
Cu739  Cu758   2.829   .     S
Cu739  Cu757   2.622   .     S
Cu739  Cu831   2.456   .     S
Cu739  Zn741   2.582   .     S
Cu739  Cu857   2.541   .     S
Cu739  Cu930   2.616   .     S
Cu739  Cu872   2.723   .     S
Cu740  Zn783   2.689   .     S
Cu740  Cu810   2.504   .     S
Cu740  Cu878   2.463   .     S
Cu740  Zn869   2.511   .     S
Cu740  Cu916   2.763   .     S
Zn741  Cu831   2.678   .     S
Zn741  Cu757   2.596   .     S
Zn741  Cu857   2.526   .     S
Cu742  Cu790   2.660   .     S
Cu742  Cu838   2.344   .     S
Cu742  Cu826   2.532   .     S
Cu742  Cu782   2.735   .     S
Cu742  Cu788   2.583   .     S
Cu742  Zn929   2.458   .     S
Cu742  Cu864   2.718   .     S
Cu743  Cu808   2.535   .     S
Cu743  Zn816   2.884   .     S
Cu743  Cu810   2.641   .     S
Cu743  Cu771   2.852   .     S
Cu743  Cu870   2.774   .     S
Cu743  Cu940   2.473   .     S
Cu743  Cu895   2.655   .     S
Cu744  Cu755   2.711   .     S
Cu744  Cu838   2.622   .     S
Cu744  Cu769   2.604   .     S
Cu744  Cu788   2.637   .     S
Cu744  Cu803   2.818   .     S
Cu744  Cu958   2.616   .     S
Cu745  Zn799   2.735   .     S
Cu745  Cu763   2.647   .     S
Cu745  Cu785   2.571   .     S
Cu745  Zn747   2.540   .     S
Cu745  Cu850   2.700   .     S
Cu745  Cu860   2.562   .     S
Cu745  Cu898   2.595   .     S
Cu745  Zn920   2.490   .     S
Zn746  Cu797   2.541   .     S
Zn746  Cu753   2.693   .     S
Zn746  Cu814   2.519   .     S
Zn746  Cu912   2.521   .     S
Zn746  Cu900   2.708   .     S
Zn746  Cu903   2.509   .     S
Zn747  Cu797   2.554   .     S
Zn747  Cu791   2.539   .     S
Zn747  Cu760   2.764   .     S
Zn747  Cu763   2.584   .     S
Zn747  Cu859   2.572   .     S
Zn747  Cu871   2.577   .     S
Zn747  Cu860   2.616   .     S
Zn748  Cu750   2.624   .     S
Zn748  Cu789   2.440   .     S
Zn748  Cu835   2.600   .     S
Zn748  Cu854   2.699   .     S
Zn748  Cu966   2.450   .     S
Zn748  Cu905   2.783   .     S
Cu749  Zn779   2.609   .     S
Cu749  Zn804   2.498   .     S
Cu749  Cu886   2.599   .     S
Cu749  Cu906   2.546   .     S
Cu749  Cu909   2.496   .     S
Cu750  Cu822   2.733   .     S
Cu750  Zn823   2.647   .     S
Cu750  Cu827   2.678   .     S
Cu750  Cu805   2.550   .     S
Cu750  Cu902   2.649   .     S
Cu750  Cu966   2.532   .     S
Cu750  Cu917   2.435   .     S
Cu751  Cu846   2.785   .     S
Cu751  Cu836   2.597   .     S
Cu751  Cu798   2.504   .     S
Cu751  Cu931   2.766   .     S
Cu751  Zn980   2.635   .     S
Cu751  Cu888   2.755   .     S
Cu752  Cu809   2.592   .     S
Cu752  Cu856   2.787   .     S
Cu752  Cu885   2.772   .     S
Cu752  Cu861   2.664   .     S
Cu753  Cu768   2.460   .     S
Cu753  Cu786   2.698   .     S
Cu753  Zn817   2.714   .     S
Cu753  Cu900   2.508   .     S
Cu753  Zn969   2.602   .     S
Cu753  Cu932   2.538   .     S
Cu754  Cu773   2.833   .     S
Cu754  Zn829   2.398   .     S
Cu754  Zn787   2.716   .     S
Cu754  Cu813   2.887   .     S
Cu754  Cu946   2.612   .     S
Cu754  Cu939   2.529   .     S
Cu755  Cu838   3.098   .     S
Cu755  Cu865   2.573   .     S
Cu755  Cu958   2.755   .     S
Cu755  Zn869   2.617   .     S
Cu756  Cu784   2.828   .     S
Cu756  Zn781   2.743   .     S
Cu756  Cu925   2.661   .     S
Cu756  Cu881   2.485   .     S
Cu756  Cu973   2.511   .     S
Cu757  Zn781   2.518   .     S
Cu757  Cu872   2.796   .     S
Cu758  Zn842   2.485   .     S
Cu758  Cu831   2.549   .     S
Cu758  Zn840   2.671   .     S
Cu758  Cu855   2.585   .     S
Cu758  Cu943   2.534   .     S
Cu758  Cu930   2.676   .     S
Cu759  Cu807   2.676   .     S
Cu759  Cu846   2.496   .     S
Cu759  Zn818   2.587   .     S
Cu759  Zn843   2.729   .     S
Cu759  Cu844   2.603   .     S
Cu759  Cu950   2.598   .     S
Cu759  Cu879   2.326   .     S
Cu760  Cu852   2.609   .     S
Cu760  Zn834   2.738   .     S
Cu760  Cu850   2.406   .     S
Cu760  Zn875   2.535   .     S
Cu760  Cu860   2.729   .     S
Cu760  Cu918   2.840   .     S
Cu761  Zn834   2.728   .     S
Cu761  Cu825   2.802   .     S
Cu761  Zn776   2.676   .     S
Cu761  Cu849   2.520   .     S
Cu761  Cu762   2.599   .     S
Cu761  Cu942   2.413   .     S
Cu761  Cu949   2.484   .     S
Cu761  Cu964   2.548   .     S
Cu762  Cu847   2.916   .     S
Cu762  Cu825   2.706   .     S
Cu762  Cu782   2.790   .     S
Cu762  Cu877   2.624   .     S
Cu762  Cu949   2.601   .     S
Cu762  Cu923   2.634   .     S
Cu763  Cu785   2.625   .     S
Cu763  Zn806   2.586   .     S
Cu763  Cu814   2.606   .     S
Cu763  Cu797   2.586   .     S
Cu763  Cu871   2.543   .     S
Cu763  Cu919   2.716   .     S
Zn764  Cu802   2.832   .     S
Zn764  Cu813   2.475   .     S
Zn764  Cu789   2.600   .     S
Zn764  Cu791   2.432   .     S
Zn764  Cu866   2.749   .     S
Zn764  Cu926   2.707   .     S
Zn764  Cu890   2.538   .     S
Cu765  Cu794   2.646   .     S
Cu765  Cu821   2.481   .     S
Cu765  Zn842   2.607   .     S
Cu765  Zn829   2.669   .     S
Cu765  Cu928   2.347   .     S
Cu765  Cu977   2.441   .     S
Cu766  Zn839   2.692   .     S
Cu766  Cu790   2.696   .     S
Cu766  Cu874   2.582   .     S
Cu766  Cu944   2.618   .     S
Cu766  Cu862   2.665   .     S
Cu767  Cu828   2.767   .     S
Cu767  Zn792   2.574   .     S
Cu767  Cu965   2.418   .     S
Cu768  Zn806   2.680   .     S
Cu768  Cu814   2.489   .     S
Cu768  Cu819   2.762   .     S
Cu768  Zn817   2.748   .     S
Cu768  Cu811   2.379   .     S
Cu768  Zn969   2.724   .     S
Cu768  Cu924   2.484   .     S
Cu769  Cu803   2.845   .     S
Cu769  Cu808   2.634   .     S
Cu769  Cu959   2.574   .     S
Cu770  Cu775   2.687   .     S
Cu770  Zn842   2.540   .     S
Cu770  Cu928   2.390   .     S
Cu770  Cu914   2.751   .     S
Cu771  Cu772   2.735   .     S
Cu771  Zn783   2.428   .     S
Cu771  Cu774   2.803   .     S
Cu771  Zn816   2.601   .     S
Cu771  Cu887   2.735   .     S
Cu771  Cu975   2.695   .     S
Cu771  Cu870   2.544   .     S
Cu772  Cu774   2.470   .     S
Cu772  Cu887   2.656   .     S
Cu773  Cu789   2.495   .     S
Cu773  Cu835   2.440   .     S
Cu773  Cu813   2.431   .     S
Cu773  Cu938   2.433   .     S
Cu773  Cu866   2.468   .     S
Cu774  Zn816   2.597   .     S
Cu774  Cu975   2.601   .     S
Cu775  Zn842   2.701   .     S
Cu775  Cu831   2.756   .     S
Cu775  Cu914   2.618   .     S
Cu775  Cu934   2.655   .     S
Zn776  Cu784   2.440   .     S
Zn776  Cu849   2.684   .     S
Zn776  Cu825   2.611   .     S
Zn776  Cu973   2.798   .     S
Zn776  Cu942   2.555   .     S
Cu777  Zn834   2.454   .     S
Cu777  Cu837   2.598   .     S
Cu777  Zn787   2.519   .     S
Cu777  Cu849   2.558   .     S
Cu777  Cu910   2.703   .     S
Cu777  Cu956   2.633   .     S
Cu777  Zn875   2.620   .     S
Cu778  Zn818   2.782   .     S
Cu778  Cu805   2.397   .     S
Cu778  Cu807   2.609   .     S
Cu778  Cu858   2.617   .     S
Cu778  Cu897   2.575   .     S
Zn779  Cu841   2.771   .     S
Zn779  Cu851   2.631   .     S
Zn779  Cu800   2.521   .     S
Zn779  Cu976   2.518   .     S
Zn779  Cu906   2.495   .     S
Zn779  Cu894   2.572   .     S
Cu780  Cu786   2.578   .     S
Cu780  Zn804   2.767   .     S
Cu780  Cu915   2.471   .     S
Cu780  Zn961   2.570   .     S
Zn781  Cu925   2.556   .     S
Cu782  Cu826   2.653   .     S
Cu782  Cu847   2.509   .     S
Cu782  Cu838   2.450   .     S
Cu782  Cu877   2.608   .     S
Cu782  Zn929   2.981   .     S
Cu782  Zn941   2.673   .     S
Zn783  Cu810   2.746   .     S
Zn783  Cu953   2.462   .     S
Zn783  Cu916   2.599   .     S
Zn783  Cu887   2.523   .     S
Cu784  Cu849   2.823   .     S
Cu784  Cu837   2.712   .     S
Cu784  Zn840   2.572   .     S
Cu784  Cu889   2.718   .     S
Cu784  Cu935   2.672   .     S
Cu784  Cu973   2.862   .     S
Cu785  Zn806   2.620   .     S
Cu785  Zn799   2.644   .     S
Cu785  Cu796   2.708   .     S
Cu785  Zn920   2.584   .     S
Cu785  Cu922   2.765   .     S
Cu785  Cu911   2.585   .     S
Cu786  Zn804   2.492   .     S
Cu786  Zn817   2.548   .     S
Cu786  Cu891   2.532   .     S
Cu786  Cu932   2.718   .     S
Cu786  Zn961   2.725   .     S
Zn787  Cu813   2.795   .     S
Zn787  Cu837   2.625   .     S
Zn787  Cu852   2.537   .     S
Zn787  Cu880   2.527   .     S
Zn787  Cu979   2.432   .     S
Zn787  Cu910   2.646   .     S
Cu788  Cu803   2.484   .     S
Cu788  Cu838   2.640   .     S
Cu788  Cu864   2.778   .     S
Cu788  Cu853   2.837   .     S
Cu788  Zn899   2.575   .     S
Cu789  Cu822   2.491   .     S
Cu789  Cu802   2.861   .     S
Cu789  Cu866   2.618   .     S
Cu789  Cu905   2.658   .     S
Cu789  Cu892   2.497   .     S
Cu790  Zn799   2.517   .     S
Cu790  Cu864   2.733   .     S
Cu790  Cu876   2.694   .     S
Cu790  Cu874   2.424   .     S
Cu791  Cu852   2.849   .     S
Cu791  Cu797   2.613   .     S
Cu791  Cu890   2.817   .     S
Cu791  Cu859   2.488   .     S
Cu791  Zn868   2.652   .     S
Zn792  Cu812   2.626   .     S
Zn792  Zn845   2.684   .     S
Zn792  Cu828   2.581   .     S
Zn792  Cu896   2.450   .     S
Zn793  Cu828   2.553   .     S
Zn793  Cu825   2.524   .     S
Zn793  Cu812   2.696   .     S
Zn793  Cu951   2.551   .     S
Zn793  Cu923   2.563   .     S
Zn793  Cu908   2.477   .     S
Cu794  Cu821   2.517   .     S
Cu794  Cu809   2.798   .     S
Cu794  Zn815   2.522   .     S
Cu794  Zn829   2.571   .     S
Cu794  Cu835   2.928   .     S
Cu794  Cu955   2.492   .     S
Cu794  Cu883   2.513   .     S
Cu795  Cu933   2.720   .     S
Cu796  Cu811   2.656   .     S
Cu796  Zn806   2.482   .     S
Cu796  Zn839   2.554   .     S
Cu796  Cu922   2.777   .     S
Cu796  Cu952   2.632   .     S
Cu796  Zn974   2.632   .     S
Cu797  Cu814   2.738   .     S
Cu797  Zn868   2.443   .     S
Cu797  Cu903   2.608   .     S
Cu798  Cu846   2.419   .     S
Cu798  Zn843   2.561   .     S
Cu798  Cu931   2.488   .     S
Cu798  Cu884   2.719   .     S
Cu798  Cu879   2.520   .     S
Zn799  Cu826   2.641   .     S
Zn799  Cu898   2.551   .     S
Zn799  Cu911   2.572   .     S
Zn799  Cu876   2.556   .     S
Cu800  Cu830   2.752   .     S
Cu800  Cu841   2.870   .     S
Cu800  Zn843   2.583   .     S
Cu800  Cu844   2.645   .     S
Cu800  Cu968   2.873   .     S
Cu800  Cu976   2.551   .     S
Zn801  Cu802   2.448   .     S
Zn801  Cu822   2.675   .     S
Zn801  Cu827   2.494   .     S
Zn801  Cu904   2.651   .     S
Zn801  Cu921   2.640   .     S
Zn801  Cu957   2.655   .     S
Cu802  Cu822   2.448   .     S
Cu802  Cu892   2.574   .     S
Cu802  Cu926   2.509   .     S
Cu802  Cu921   2.444   .     S
Cu803  Zn899   2.720   .     S
Zn804  Cu886   2.487   .     S
Zn804  Cu915   2.811   .     S
Zn804  Cu891   2.674   .     S
Cu805  Cu807   2.661   .     S
Cu805  Zn823   2.720   .     S
Cu805  Cu893   2.675   .     S
Cu805  Cu967   2.543   .     S
Cu805  Cu902   2.727   .     S
Zn806  Cu814   2.608   .     S
Zn806  Cu811   2.501   .     S
Zn806  Cu919   2.586   .     S
Zn806  Cu924   2.570   .     S
Zn806  Cu922   2.586   .     S
Cu807  Zn818   2.532   .     S
Cu807  Cu844   2.727   .     S
Cu807  Zn823   2.563   .     S
Cu807  Cu897   2.643   .     S
Cu808  Cu810   2.781   .     S
Cu808  Cu913   2.717   .     S
Cu808  Cu959   2.620   .     S
Cu808  Cu940   2.744   .     S
Cu809  Zn815   2.715   .     S
Cu809  Cu835   2.580   .     S
Cu809  Cu962   2.574   .     S
Cu809  Cu861   2.845   .     S
Cu809  Cu854   2.833   .     S
Cu809  Cu883   2.590   .     S
Cu810  Cu916   2.572   .     S
Cu810  Cu870   2.671   .     S
Cu810  Cu913   2.601   .     S
Cu811  Cu819   2.605   .     S
Cu811  Cu824   2.744   .     S
Cu811  Zn848   2.855   .     S
Cu811  Cu924   2.508   .     S
Cu811  Zn974   2.766   .     S
Cu812  Cu825   2.612   .     S
Cu812  Zn845   2.798   .     S
Cu812  Cu828   2.477   .     S
Cu812  Cu896   2.575   .     S
Cu812  Cu936   2.749   .     S
Cu812  Cu951   2.589   .     S
Cu813  Cu852   2.591   .     S
Cu813  Cu939   2.572   .     S
Cu813  Cu890   2.651   .     S
Cu814  Cu903   2.645   .     S
Cu814  Cu919   2.728   .     S
Cu814  Zn969   2.722   .     S
Zn815  Cu821   2.672   .     S
Zn815  Cu962   2.433   .     S
Zn815  Cu955   2.633   .     S
Zn816  Cu895   2.532   .     S
Zn816  Cu975   2.523   .     S
Zn816  Cu937   2.545   .     S
Zn817  Cu819   2.561   .     S
Zn817  Cu932   2.666   .     S
Zn817  Cu927   2.902   .     S
Zn817  Cu945   2.782   .     S
Zn818  Cu846   2.608   .     S
Zn818  Cu820   2.548   .     S
Zn818  Cu867   2.781   .     S
Zn818  Cu897   2.808   .     S
Zn818  Cu950   2.674   .     S
Cu819  Zn848   2.471   .     S
Cu819  Cu945   2.642   .     S
Cu819  Cu960   2.626   .     S
Cu819  Cu954   2.790   .     S
Cu820  Cu833   2.660   .     S
Cu820  Cu846   2.787   .     S
Cu820  Cu963   2.517   .     S
Cu820  Cu867   2.389   .     S
Cu821  Cu955   2.538   .     S
Cu821  Cu928   2.573   .     S
Cu822  Cu966   2.411   .     S
Cu822  Cu904   2.492   .     S
Cu822  Cu892   2.674   .     S
Zn823  Cu827   2.629   .     S
Zn823  Cu844   2.683   .     S
Zn823  Cu841   2.573   .     S
Zn823  Cu981   2.643   .     S
Cu824  Zn848   2.653   .     S
Cu824  Zn839   2.566   .     S
Cu824  Zn974   2.685   .     S
Cu824  Cu972   2.494   .     S
Cu824  Cu947   2.417   .     S
Cu825  Cu901   2.543   .     S
Cu825  Cu951   2.623   .     S
Cu825  Cu949   2.626   .     S
Cu826  Cu847   2.776   .     S
Cu826  Cu850   2.632   .     S
Cu826  Cu978   2.441   .     S
Cu826  Cu876   2.646   .     S
Cu827  Cu841   2.600   .     S
Cu827  Cu851   2.751   .     S
Cu827  Cu917   2.742   .     S
Cu827  Cu948   2.627   .     S
Cu827  Cu904   2.565   .     S
Cu828  Cu896   2.523   .     S
Cu828  Cu908   2.474   .     S
Cu828  Cu965   2.564   .     S
Zn829  Cu835   2.868   .     S
Zn829  Cu977   2.599   .     S
Zn829  Cu946   2.605   .     S
Zn829  Cu938   2.613   .     S
Cu830  Zn843   2.646   .     S
Cu830  Cu983   2.920   .     S
Cu830  Cu968   2.809   .     S
Cu831  Zn842   2.724   .     S
Cu831  Cu934   2.651   .     S
Cu831  Cu857   2.731   .     S
Cu831  Cu943   2.652   .     S
Cu832  Zn848   2.508   .     S
Cu832  Cu954   2.515   .     S
Cu832  Cu971   2.518   .     S
Cu833  Cu836   2.768   .     S
Cu833  Cu846   2.439   .     S
Cu833  Zn980   2.604   .     S
Cu833  Cu963   2.704   .     S
Zn834  Cu849   2.538   .     S
Zn834  Cu847   2.465   .     S
Zn834  Cu956   2.553   .     S
Zn834  Cu918   2.532   .     S
Zn834  Cu964   2.656   .     S
Cu835  Cu883   2.563   .     S
Cu836  Cu933   2.631   .     S
Cu836  Zn980   2.588   .     S
Cu837  Cu849   2.492   .     S
Cu837  Zn840   3.008   .     S
Cu837  Cu907   2.573   .     S
Cu837  Cu910   2.492   .     S
Cu837  Cu935   2.620   .     S
Cu838  Zn941   2.499   .     S
Cu838  Cu958   2.841   .     S
Zn839  Cu952   2.689   .     S
Zn839  Cu947   2.598   .     S
Zn839  Cu944   2.528   .     S
Zn840  Cu930   2.460   .     S
Zn840  Cu889   2.567   .     S
Zn840  Cu907   2.624   .     S
Cu841  Cu851   2.444   .     S
Cu841  Cu844   2.601   .     S
Cu841  Cu981   2.727   .     S
Cu841  Cu976   2.593   .     S
Cu841  Cu948   2.442   .     S
Zn842  Cu914   2.534   .     S
Zn842  Cu943   2.635   .     S
Zn842  Cu873   2.394   .     S
Zn843  Cu844   2.751   .     S
Zn843  Cu983   2.686   .     S
Cu844  Cu981   2.651   .     S
Zn845  Cu936   2.785   .     S
Cu846  Cu950   2.791   .     S
Cu846  Cu963   2.545   .     S
Cu846  Cu931   2.674   .     S
Cu847  Cu850   2.761   .     S
Cu847  Cu877   2.594   .     S
Cu847  Cu964   2.364   .     S
Cu847  Cu978   2.443   .     S
Zn848  Cu960   2.628   .     S
Zn848  Cu971   2.689   .     S
Zn848  Cu972   2.577   .     S
Cu849  Cu935   2.560   .     S
Cu849  Cu942   2.707   .     S
Cu849  Cu956   2.553   .     S
Cu850  Cu918   2.367   .     S
Cu850  Cu898   2.583   .     S
Cu851  Cu948   2.636   .     S
Cu851  Cu906   2.667   .     S
Cu851  Cu957   2.691   .     S
Cu852  Cu979   2.530   .     S
Cu852  Zn875   2.507   .     S
Cu852  Cu859   2.671   .     S
Cu853  Zn899   2.582   .     S
Cu853  Cu862   2.990   .     S
Cu853  Cu864   2.535   .     S
Cu854  Cu883   2.740   .     S
Cu854  Cu902   2.552   .     S
Cu854  Cu861   2.494   .     S
Cu854  Cu905   2.557   .     S
Cu854  Zn1053  2.409   .     S
Cu855  Cu943   2.802   .     S
Cu855  Cu873   2.623   .     S
Cu855  Cu946   2.693   .     S
Cu855  Cu907   2.541   .     S
Cu855  Cu880   2.583   .     S
Cu855  Zn1058  2.885   .     S
Cu855  Cu1026  2.497   .     S
Cu856  Cu885   2.536   .     S
Cu856  Cu861   2.508   .     S
Cu856  Cu858   2.681   .     S
Cu856  Zn987   2.551   .     S
Cu857  Cu930   2.682   .     S
Cu857  Cu943   2.592   .     S
Cu857  Cu872   2.546   .     S
Cu857  Cu934   2.639   .     S
Cu857  Cu988   2.604   .     S
Cu857  Cu1067  2.385   .     S
Cu857  Zn1077  2.719   .     S
Cu858  Cu893   2.437   .     S
Cu858  Cu986   2.664   .     S
Cu858  Cu897   2.675   .     S
Cu858  Zn984   2.790   .     S
Cu859  Zn875   2.487   .     S
Cu859  Cu985   2.498   .     S
Cu859  Cu860   2.530   .     S
Cu859  Cu989   2.479   .     S
Cu860  Cu871   2.700   .     S
Cu860  Cu918   2.560   .     S
Cu860  Cu898   2.703   .     S
Cu860  Cu1004  2.714   .     S
Cu860  Cu1059  2.731   .     S
Cu861  Cu996   2.807   .     S
Cu861  Cu962   2.518   .     S
Cu861  Zn1016  2.495   .     S
Cu862  Cu1023  2.407   .     S
Cu862  Cu944   2.757   .     S
Cu862  Cu874   2.733   .     S
Zn863  Cu913   2.528   .     S
Zn863  Cu959   2.581   .     S
Zn863  Cu958   2.531   .     S
Zn863  Zn869   2.719   .     S
Zn863  Cu999   2.460   .     S
Zn863  Cu1033  2.677   .     S
Cu864  Cu876   2.622   .     S
Cu864  Zn1089  2.661   .     S
Cu864  Zn929   2.720   .     S
Cu864  Cu1023  2.428   .     S
Cu865  Zn941   2.531   .     S
Cu865  Cu878   2.587   .     S
Cu865  Cu923   2.479   .     S
Cu865  Cu908   2.665   .     S
Cu865  Zn869   2.574   .     S
Cu865  Cu1009  2.700   .     S
Cu865  Cu1008  2.558   .     S
Cu865  Cu1037  2.802   .     S
Cu866  Cu905   2.393   .     S
Cu866  Cu939   2.530   .     S
Cu866  Cu892   2.631   .     S
Cu866  Cu1002  2.327   .     S
Cu866  Cu890   2.513   .     S
Cu867  Cu897   2.568   .     S
Cu867  Cu950   2.543   .     S
Cu867  Cu1014  2.719   .     S
Cu867  Cu991   2.434   .     S
Zn868  Cu912   2.567   .     S
Zn868  Cu1006  2.418   .     S
Zn868  Cu926   2.417   .     S
Zn868  Cu903   2.491   .     S
Zn868  Cu871   2.667   .     S
Zn868  Cu1035  2.772   .     S
Zn868  Cu1012  2.710   .     S
Zn869  Cu1011  2.541   .     S
Zn869  Cu958   2.777   .     S
Zn869  Cu916   2.629   .     S
Zn869  Cu878   2.508   .     S
Zn869  Cu913   2.613   .     S
Zn869  Cu999   2.757   .     S
Zn869  Cu1037  2.850   .     S
Cu870  Cu913   2.807   .     S
Cu870  Cu895   2.561   .     S
Cu870  Cu975   2.496   .     S
Cu870  Cu916   2.423   .     S
Cu870  Cu887   2.565   .     S
Cu870  Cu1071  2.454   .     S
Cu870  Cu1054  2.555   .     S
Cu870  Zn1068  2.842   .     S
Cu871  Cu903   2.720   .     S
Cu871  Zn920   2.386   .     S
Cu871  Cu919   2.701   .     S
Cu871  Cu989   2.450   .     S
Cu871  Cu1012  2.736   .     S
Cu871  Cu1064  2.549   .     S
Cu872  Cu1032  2.444   .     S
Cu872  Cu930   2.758   .     S
Cu872  Cu925   2.427   .     S
Cu872  Cu889   2.612   .     S
Cu872  Zn1077  2.730   .     S
Cu872  Cu1001  2.490   .     S
Cu873  Cu946   2.638   .     S
Cu873  Cu977   2.670   .     S
Cu873  Cu943   2.611   .     S
Cu873  Cu928   2.533   .     S
Cu873  Cu914   2.886   .     S
Cu873  Zn1060  2.767   .     S
Cu873  Cu1061  2.558   .     S
Cu873  Zn1093  2.734   .     S
Cu874  Cu911   2.544   .     S
Cu874  Cu952   2.771   .     S
Cu874  Zn995   2.927   .     S
Cu874  Zn1076  2.810   .     S
Zn875  Cu985   2.453   .     S
Zn875  Cu956   2.781   .     S
Zn875  Cu979   2.634   .     S
Zn875  Cu1074  2.782   .     S
Cu876  Cu911   3.071   .     S
Cu876  Cu898   2.600   .     S
Cu876  Zn929   2.519   .     S
Cu876  Zn1098  2.719   .     S
Cu876  Zn995   2.729   .     S
Cu877  Cu964   2.489   .     S
Cu877  Cu978   2.476   .     S
Cu877  Zn941   2.625   .     S
Cu877  Cu1003  2.530   .     S
Cu877  Zn1080  2.812   .     S
Cu878  Cu953   2.726   .     S
Cu878  Cu908   2.596   .     S
Cu878  Cu965   2.563   .     S
Cu878  Cu1011  2.720   .     S
Cu878  Cu916   2.627   .     S
Cu878  Cu1048  2.566   .     S
Cu879  Cu884   2.673   .     S
Cu879  Cu950   2.844   .     S
Cu879  Cu931   2.533   .     S
Cu879  Zn982   2.471   .     S
Cu879  Cu983   2.540   .     S
Cu879  Zn992   2.800   .     S
Cu880  Cu1070  2.674   .     S
Cu880  Cu939   2.471   .     S
Cu880  Cu907   2.676   .     S
Cu880  Cu946   2.606   .     S
Cu880  Cu979   2.627   .     S
Cu880  Cu910   2.497   .     S
Cu880  Cu1026  2.483   .     S
Cu880  Cu1028  2.607   .     S
Cu881  Cu973   2.800   .     S
Cu881  Cu1022  2.470   .     S
Cu881  Cu925   2.553   .     S
Cu881  Cu901   2.764   .     S
Cu881  Cu936   2.650   .     S
Cu881  Cu1081  2.550   .     S
Zn882  Cu957   2.789   .     S
Zn882  Cu886   2.721   .     S
Zn882  Cu912   2.651   .     S
Zn882  Cu921   2.927   .     S
Zn882  Cu891   2.735   .     S
Zn882  Cu900   2.466   .     S
Zn882  Cu1000  2.713   .     S
Zn882  Cu997   2.386   .     S
Zn882  Cu1005  2.437   .     S
Cu883  Cu977   2.638   .     S
Cu883  Cu962   2.558   .     S
Cu883  Cu938   2.588   .     S
Cu883  Cu1050  2.553   .     S
Cu883  Zn993   2.578   .     S
Cu884  Cu931   2.577   .     S
Cu884  Cu888   2.509   .     S
Cu884  Cu983   2.408   .     S
Cu884  Zn992   2.559   .     S
Cu885  Cu996   2.539   .     S
Cu886  Cu906   2.446   .     S
Cu886  Cu909   2.712   .     S
Cu886  Cu957   3.043   .     S
Cu886  Cu915   2.709   .     S
Cu886  Cu891   2.610   .     S
Cu886  Cu998   2.506   .     S
Cu886  Cu1000  2.345   .     S
Cu886  Cu1055  2.490   .     S
Cu887  Cu1071  2.704   .     S
Cu887  Cu916   2.564   .     S
Cu887  Cu953   2.433   .     S
Cu887  Cu975   2.587   .     S
Cu887  Cu1031  2.397   .     S
Cu888  Cu933   2.653   .     S
Cu888  Cu931   2.770   .     S
Cu888  Zn980   2.958   .     S
Cu889  Cu907   2.540   .     S
Cu889  Cu925   2.742   .     S
Cu889  Cu930   2.431   .     S
Cu889  Cu935   2.955   .     S
Cu889  Cu973   2.596   .     S
Cu889  Zn1065  2.484   .     S
Cu889  Cu1001  2.500   .     S
Cu889  Cu1007  2.779   .     S
Cu890  Cu1002  2.603   .     S
Cu890  Cu979   2.575   .     S
Cu890  Cu939   3.241   .     S
Cu890  Cu1006  2.621   .     S
Cu890  Cu1075  2.805   .     S
Cu891  Cu915   2.810   .     S
Cu891  Cu932   2.581   .     S
Cu891  Zn961   2.657   .     S
Cu891  Cu1005  2.489   .     S
Cu891  Cu1055  2.423   .     S
Cu891  Cu1045  2.651   .     S
Cu892  Cu926   2.474   .     S
Cu892  Cu1002  2.830   .     S
Cu892  Cu905   2.871   .     S
Cu892  Cu966   2.655   .     S
Cu892  Cu1088  2.552   .     S
Cu893  Cu986   2.510   .     S
Cu893  Zn987   2.406   .     S
Cu893  Cu897   2.720   .     S
Cu893  Cu967   2.638   .     S
Cu893  Cu902   2.583   .     S
Cu894  Cu909   2.461   .     S
Cu894  Cu968   2.487   .     S
Cu894  Cu1063  2.777   .     S
Cu894  Zn1072  2.707   .     S
Cu895  Cu975   2.579   .     S
Cu895  Cu940   2.640   .     S
Cu895  Cu937   2.651   .     S
Cu895  Cu1027  2.549   .     S
Cu895  Zn1068  2.647   .     S
Cu896  Cu936   2.417   .     S
Cu896  Cu951   2.587   .     S
Cu896  Cu908   2.629   .     S
Cu896  Cu965   2.529   .     S
Cu896  Cu1044  2.627   .     S
Cu896  Cu1047  2.467   .     S
Cu896  Cu1020  2.647   .     S
Cu897  Cu986   2.460   .     S
Cu897  Cu970   2.634   .     S
Cu897  Cu967   2.631   .     S
Cu897  Cu991   2.552   .     S
Cu898  Cu978   2.630   .     S
Cu898  Cu911   2.974   .     S
Cu898  Cu1030  2.779   .     S
Cu898  Zn1019  2.561   .     S
Zn899  Cu994   2.653   .     S
Zn899  Cu958   2.391   .     S
Cu900  Cu903   2.747   .     S
Cu900  Cu912   2.852   .     S
Cu900  Zn969   2.437   .     S
Cu900  Cu1013  2.494   .     S
Cu900  Cu1005  2.501   .     S
Cu900  Cu1083  2.593   .     S
Cu901  Cu951   2.574   .     S
Cu901  Cu942   2.733   .     S
Cu901  Cu936   2.794   .     S
Cu901  Cu973   2.501   .     S
Cu901  Cu1010  2.719   .     S
Cu901  Cu1043  2.477   .     S
Cu901  Cu1039  2.682   .     S
Cu902  Cu967   2.669   .     S
Cu902  Cu966   2.627   .     S
Cu902  Cu917   2.483   .     S
Cu902  Zn1016  2.542   .     S
Cu902  Zn1053  3.122   .     S
Cu903  Cu912   2.611   .     S
Cu903  Cu919   2.542   .     S
Cu903  Zn969   2.613   .     S
Cu903  Cu1012  2.593   .     S
Cu903  Cu1013  2.567   .     S
Cu903  Cu1029  2.703   .     S
Cu904  Cu966   2.622   .     S
Cu904  Cu917   2.545   .     S
Cu904  Cu921   2.538   .     S
Cu904  Cu957   2.721   .     S
Cu904  Zn1046  2.554   .     S
Cu904  Zn1103  2.677   .     S
Cu905  Cu966   2.749   .     S
Cu905  Cu938   2.473   .     S
Cu905  Zn993   2.537   .     S
Cu905  Cu1088  2.562   .     S
Cu906  Cu909   2.775   .     S
Cu906  Cu957   2.631   .     S
Cu906  Cu976   2.813   .     S
Cu906  Cu1063  2.767   .     S
Cu906  Cu948   2.917   .     S
Cu906  Cu1041  3.124   .     S
Cu906  Cu998   2.636   .     S
Cu907  Cu910   2.507   .     S
Cu907  Cu935   2.480   .     S
Cu907  Cu1026  2.720   .     S
Cu907  Zn1065  2.616   .     S
Cu907  Zn1095  2.629   .     S
Cu908  Cu923   2.606   .     S
Cu908  Cu965   2.582   .     S
Cu908  Cu951   2.423   .     S
Cu908  Cu1020  2.487   .     S
Cu908  Cu1042  2.568   .     S
Cu908  Cu1008  2.619   .     S
Cu909  Cu915   2.560   .     S
Cu909  Cu998   2.417   .     S
Cu910  Cu979   2.522   .     S
Cu910  Cu935   2.472   .     S
Cu910  Cu956   2.586   .     S
Cu910  Cu1074  2.636   .     S
Cu910  Zn1095  2.547   .     S
Cu910  Cu1028  2.594   .     S
Cu911  Cu922   2.762   .     S
Cu911  Zn920   2.468   .     S
Cu911  Zn1019  2.463   .     S
Cu911  Zn1040  2.510   .     S
Cu912  Cu921   2.467   .     S
Cu912  Cu997   2.594   .     S
Cu912  Cu1035  2.551   .     S
Cu912  Cu1013  2.522   .     S
Cu913  Cu959   2.655   .     S
Cu913  Cu940   2.464   .     S
Cu913  Cu916   2.752   .     S
Cu913  Cu999   2.649   .     S
Cu913  Cu1054  2.546   .     S
Cu913  Cu1034  2.608   .     S
Cu914  Cu934   2.508   .     S
Cu914  Cu1025  2.438   .     S
Cu914  Cu943   2.692   .     S
Cu914  Cu1036  2.645   .     S
Cu914  Cu1061  2.615   .     S
Cu915  Zn961   2.578   .     S
Cu915  Cu1055  2.474   .     S
Cu916  Cu1011  2.570   .     S
Cu916  Cu953   2.657   .     S
Cu916  Cu1031  2.538   .     S
Cu916  Cu1054  2.456   .     S
Cu917  Cu981   2.855   .     S
Cu917  Cu966   2.590   .     S
Cu917  Cu967   2.497   .     S
Cu917  Cu948   2.889   .     S
Cu917  Zn1103  2.627   .     S
Cu918  Cu964   2.454   .     S
Cu918  Cu978   2.912   .     S
Cu918  Cu1030  2.643   .     S
Cu918  Cu1004  2.562   .     S
Cu919  Zn969   2.510   .     S
Cu919  Zn920   2.846   .     S
Cu919  Cu924   2.528   .     S
Cu919  Cu922   2.399   .     S
Cu919  Cu1024  2.615   .     S
Cu919  Cu1029  2.415   .     S
Cu919  Cu1064  2.779   .     S
Zn920  Cu922   2.731   .     S
Zn920  Cu1059  2.645   .     S
Zn920  Cu1018  2.629   .     S
Zn920  Cu1064  2.634   .     S
Cu921  Cu957   2.707   .     S
Cu921  Cu926   2.557   .     S
Cu921  Zn1097  2.850   .     S
Cu921  Cu1038  2.588   .     S
Cu921  Cu997   2.412   .     S
Cu922  Cu952   2.586   .     S
Cu922  Zn974   2.531   .     S
Cu922  Cu1018  2.653   .     S
Cu922  Cu1024  2.562   .     S
Cu922  Cu1091  2.678   .     S
Cu923  Cu949   2.484   .     S
Cu923  Cu951   2.756   .     S
Cu923  Cu1042  2.492   .     S
Cu923  Cu1003  2.607   .     S
Cu923  Cu1009  2.545   .     S
Cu924  Zn974   2.526   .     S
Cu924  Cu945   2.676   .     S
Cu924  Zn969   2.450   .     S
Cu924  Cu960   2.750   .     S
Cu924  Cu1024  2.556   .     S
Cu924  Cu1051  2.718   .     S
Cu924  Cu1066  2.816   .     S
Cu925  Cu973   2.637   .     S
Cu925  Cu1049  2.438   .     S
Cu925  Cu1081  2.522   .     S
Cu926  Cu1002  2.508   .     S
Cu926  Cu1006  2.904   .     S
Cu926  Cu1035  2.582   .     S
Cu927  Cu1056  2.470   .     S
Cu927  Cu945   2.610   .     S
Cu927  Cu932   2.672   .     S
Cu927  Zn961   2.544   .     S
Cu927  Cu954   2.415   .     S
Cu927  Cu1100  2.606   .     S
Cu928  Cu955   2.825   .     S
Cu928  Cu1025  2.527   .     S
Cu928  Cu977   2.623   .     S
Cu928  Cu1087  2.897   .     S
Zn929  Zn941   2.604   .     S
Cu930  Cu943   2.502   .     S
Cu930  Zn1077  2.932   .     S
Cu930  Zn1065  2.677   .     S
Cu931  Zn980   2.621   .     S
Cu931  Cu963   2.685   .     S
Cu931  Zn1073  2.639   .     S
Cu931  Zn1021  2.579   .     S
Cu931  Zn992   3.024   .     S
Cu932  Zn961   2.803   .     S
Cu932  Cu945   2.392   .     S
Cu932  Cu1045  2.707   .     S
Cu932  Cu1083  2.771   .     S
Cu932  Cu1100  2.619   .     S
Cu933  Zn980   2.559   .     S
Cu933  Zn1104  3.124   .     S
Cu934  Cu1090  3.004   .     S
Cu934  Cu1036  2.713   .     S
Cu935  Cu973   2.855   .     S
Cu935  Cu942   2.401   .     S
Cu935  Cu956   2.518   .     S
Cu935  Cu1007  2.700   .     S
Cu935  Zn1095  2.674   .     S
Cu935  Cu1062  2.639   .     S
Cu936  Cu1043  2.442   .     S
Cu936  Cu1044  2.350   .     S
Cu937  Cu975   2.539   .     S
Cu937  Cu1084  2.767   .     S
Cu937  Cu1027  2.608   .     S
Cu938  Cu939   2.562   .     S
Cu938  Cu946   2.560   .     S
Cu938  Zn1099  2.615   .     S
Cu938  Cu990   2.588   .     S
Cu939  Cu1070  2.525   .     S
Cu939  Cu979   2.470   .     S
Cu939  Cu990   2.764   .     S
Cu939  Cu1075  2.650   .     S
Cu940  Cu959   2.732   .     S
Cu940  Zn1068  2.551   .     S
Cu940  Cu1034  2.639   .     S
Zn941  Cu958   2.503   .     S
Zn941  Cu1009  2.540   .     S
Cu942  Cu1069  2.447   .     S
Cu942  Cu956   2.653   .     S
Cu942  Cu973   2.796   .     S
Cu942  Cu949   2.540   .     S
Cu942  Cu1010  2.651   .     S
Cu942  Cu1062  2.720   .     S
Cu943  Cu1061  2.468   .     S
Cu943  Cu1067  2.543   .     S
Cu943  Zn1058  2.784   .     S
Cu944  Cu947   2.778   .     S
Cu944  Cu952   2.540   .     S
Cu944  Zn1076  2.755   .     S
Cu945  Cu960   2.371   .     S
Cu945  Cu954   2.602   .     S
Cu945  Cu1051  2.562   .     S
Cu945  Cu1057  2.664   .     S
Cu945  Cu1100  2.632   .     S
Cu946  Cu977   2.554   .     S
Cu946  Cu1070  2.698   .     S
Cu946  Zn1093  2.705   .     S
Cu947  Cu972   2.486   .     S
Cu947  Zn974   2.611   .     S
Cu947  Zn1086  2.825   .     S
Cu947  Zn1101  2.729   .     S
Cu948  Cu976   2.820   .     S
Cu948  Cu981   2.589   .     S
Cu948  Cu957   2.333   .     S
Cu948  Zn1103  2.502   .     S
Cu948  Cu1041  2.733   .     S
Cu948  Cu1078  2.669   .     S
Cu949  Cu964   2.881   .     S
Cu949  Cu1069  2.619   .     S
Cu949  Cu951   2.725   .     S
Cu949  Cu1039  2.413   .     S
Cu949  Cu1003  2.677   .     S
Cu950  Cu963   2.354   .     S
Cu950  Cu970   2.464   .     S
Cu950  Zn1021  2.698   .     S
Cu950  Cu991   2.348   .     S
Cu951  Cu1039  2.626   .     S
Cu951  Cu1044  2.473   .     S
Cu951  Cu1042  2.677   .     S
Cu952  Zn974   2.617   .     S
Cu952  Zn1040  2.618   .     S
Cu953  Cu965   2.507   .     S
Cu953  Cu1048  2.455   .     S
Cu953  Cu1079  2.678   .     S
Cu953  Cu1031  2.654   .     S
Cu954  Cu960   2.680   .     S
Cu954  Cu971   2.537   .     S
Cu954  Cu1057  2.687   .     S
Cu955  Cu962   2.590   .     S
Cu955  Cu977   2.386   .     S
Cu955  Cu1050  2.580   .     S
Cu955  Cu1087  2.590   .     S
Cu956  Cu964   2.480   .     S
Cu956  Cu1074  2.735   .     S
Cu956  Zn1092  2.447   .     S
Cu956  Cu1062  2.657   .     S
Cu957  Cu1038  2.767   .     S
Cu957  Cu1041  2.651   .     S
Cu957  Cu1000  2.526   .     S
Cu958  Cu1037  2.512   .     S
Cu958  Zn1102  2.664   .     S
Cu960  Cu971   2.698   .     S
Cu960  Cu1085  2.692   .     S
Cu960  Cu972   2.395   .     S
Cu960  Zn974   2.769   .     S
Cu960  Cu1057  2.602   .     S
Cu960  Cu1066  2.587   .     S
Zn961  Cu1056  2.531   .     S
Zn961  Cu1045  2.587   .     S
Cu962  Cu996   2.634   .     S
Cu962  Zn1017  2.571   .     S
Cu962  Zn1094  2.785   .     S
Cu963  Zn980   2.741   .     S
Cu963  Zn1015  2.805   .     S
Cu963  Zn1021  2.795   .     S
Cu964  Cu1069  2.397   .     S
Cu964  Zn1080  2.651   .     S
Cu965  Cu1096  2.555   .     S
Cu965  Cu1020  2.513   .     S
Cu965  Cu1048  2.682   .     S
Cu966  Zn1053  2.632   .     S
Cu966  Zn1046  2.598   .     S
Cu967  Cu970   2.716   .     S
Cu967  Cu981   2.743   .     S
Cu968  Cu983   2.703   .     S
Cu968  Zn1072  2.541   .     S
Cu968  Cu1082  2.382   .     S
Zn969  Cu1051  2.576   .     S
Zn969  Cu1083  2.609   .     S
Zn969  Cu1029  2.454   .     S
Cu970  Cu981   2.640   .     S
Cu970  Zn982   2.645   .     S
Cu971  Cu1085  2.698   .     S
Cu971  Cu972   2.698   .     S
Cu972  Cu1085  2.524   .     S
Cu972  Zn974   2.665   .     S
Cu972  Zn1101  2.728   .     S
Cu973  Cu1010  2.697   .     S
Cu973  Cu1081  2.414   .     S
Cu973  Cu1007  2.440   .     S
Zn974  Cu1091  2.625   .     S
Zn974  Zn1101  2.618   .     S
Cu975  Cu1071  2.653   .     S
Cu975  Zn1052  2.531   .     S
Cu975  Cu1027  2.731   .     S
Cu976  Cu1063  2.907   .     S
Cu976  Cu981   2.687   .     S
Cu976  Cu1078  2.515   .     S
Cu976  Cu1082  2.498   .     S
Cu977  Cu1050  2.610   .     S
Cu977  Zn1060  2.723   .     S
Cu977  Zn1099  2.695   .     S
Cu978  Cu1030  2.641   .     S
Cu978  Zn1080  2.635   .     S
Cu978  Zn1098  2.514   .     S
Cu979  Cu985   2.509   .     S
Cu979  Cu1028  2.550   .     S
Cu979  Cu1075  2.538   .     S
Zn980  Zn1073  2.770   .     S
Cu981  Cu1078  2.414   .     S
Zn982  Cu983   2.709   .     S
Zn982  Cu1082  2.454   .     S
Zn984  Cu1014  2.632   .     S
Zn984  Cu986   3.061   .     S
Zn984  Zn987   2.601   .     S
Cu985  Cu1006  2.620   .     S
Cu985  Cu1106  2.401   .     S
Cu985  Cu1075  2.602   .     S
Cu985  Zn1109  2.540   .     S
Cu985  Cu1004  2.755   .     S
Cu985  Cu989   2.840   .     S
Cu986  Zn987   2.634   .     S
Cu986  Cu1014  2.478   .     S
Cu986  Cu991   2.637   .     S
Zn987  Cu996   2.578   .     S
Zn987  Zn1016  2.615   .     S
Cu988  Cu1032  2.652   .     S
Cu988  Cu1090  2.467   .     S
Cu988  Cu1067  2.502   .     S
Cu988  Zn1077  2.727   .     S
Cu989  Zn1113  2.809   .     S
Cu989  Cu1012  2.656   .     S
Cu989  Cu1004  2.573   .     S
Cu989  Cu1059  2.683   .     S
Cu989  Zn1109  2.445   .     S
Cu989  Cu1006  2.640   .     S
Cu990  Cu1088  2.521   .     S
Cu990  Zn1099  2.726   .     S
Cu990  Zn993   2.369   .     S
Cu990  Cu1075  2.638   .     S
Cu990  Cu1110  2.378   .     S
Cu990  Cu1070  2.584   .     S
Cu990  Cu1002  3.268   .     S
Cu991  Zn1021  2.856   .     S
Cu991  Cu1014  2.533   .     S
Cu991  Zn1015  2.414   .     S
Zn992  Zn1073  3.091   .     S
Zn993  Zn1099  2.738   .     S
Zn993  Zn1017  2.696   .     S
Zn993  Cu1088  3.119   .     S
Cu994  Cu1033  2.855   .     S
Zn995  Zn1098  2.915   .     S
Zn995  Zn1019  2.490   .     S
Zn995  Cu1023  2.667   .     S
Cu996  Zn1017  2.643   .     S
Cu997  Zn1130  2.674   .     S
Cu997  Zn1111  2.680   .     S
Cu997  Cu1035  2.692   .     S
Cu997  Cu1038  2.615   .     S
Cu997  Cu1013  2.550   .     S
Cu997  Cu1115  2.673   .     S
Cu997  Cu1005  2.632   .     S
Cu998  Zn1131  2.750   .     S
Cu998  Zn1136  2.825   .     S
Cu998  Cu1000  2.495   .     S
Cu998  Cu1041  3.471   .     S
Cu998  Cu1055  2.547   .     S
Cu998  Cu1063  2.572   .     S
Cu999  Cu1126  2.691   .     S
Cu999  Cu1037  2.564   .     S
Cu999  Zn1102  2.835   .     S
Cu999  Cu1137  2.562   .     S
Cu999  Cu1034  2.673   .     S
Cu999  Cu1117  2.399   .     S
Cu999  Cu1011  2.567   .     S
Cu1000 Zn1111  2.520   .     S
Cu1000 Zn1131  2.641   .     S
Cu1000 Cu1038  3.355   .     S
Cu1000 Cu1041  2.608   .     S
Cu1000 Cu1005  2.674   .     S
Cu1000 Cu1121  2.430   .     S
Cu1000 Cu1055  2.694   .     S
Cu1001 Cu1049  2.634   .     S
Cu1001 Zn1065  2.579   .     S
Cu1001 Zn1077  2.639   .     S
Cu1001 Cu1081  2.534   .     S
Cu1001 Cu1007  2.751   .     S
Cu1001 Cu1032  2.654   .     S
Cu1002 Cu1006  2.477   .     S
Cu1002 Cu1088  2.393   .     S
Cu1002 Cu1108  2.519   .     S
Cu1002 Zn1097  2.637   .     S
Cu1002 Cu1075  2.700   .     S
Cu1002 Cu1110  2.391   .     S
Cu1003 Zn1080  2.804   .     S
Cu1003 Zn1116  2.619   .     S
Cu1003 Cu1039  2.556   .     S
Cu1003 Cu1009  2.504   .     S
Cu1003 Cu1069  2.659   .     S
Cu1004 Cu1059  2.891   .     S
Cu1004 Cu1030  2.600   .     S
Cu1004 Zn1092  2.455   .     S
Cu1005 Cu1121  2.635   .     S
Cu1005 Cu1013  2.761   .     S
Cu1005 Cu1115  2.480   .     S
Cu1005 Cu1045  2.878   .     S
Cu1005 Cu1083  2.615   .     S
Cu1006 Cu1107  2.530   .     S
Cu1006 Cu1124  2.550   .     S
Cu1006 Cu1035  2.404   .     S
Cu1007 Zn1095  2.640   .     S
Cu1007 Cu1010  2.485   .     S
Cu1007 Cu1081  2.781   .     S
Cu1007 Zn1065  2.605   .     S
Cu1008 Cu1122  2.686   .     S
Cu1008 Cu1009  2.649   .     S
Cu1008 Zn1148  2.615   .     S
Cu1008 Cu1048  2.727   .     S
Cu1008 Cu1020  2.623   .     S
Cu1008 Zn1143  2.740   .     S
Cu1008 Cu1042  2.447   .     S
Cu1008 Cu1037  2.664   .     S
Cu1008 Cu1011  2.594   .     S
Cu1009 Cu1112  2.565   .     S
Cu1009 Zn1148  2.610   .     S
Cu1009 Zn1105  2.580   .     S
Cu1009 Cu1042  2.661   .     S
Cu1009 Cu1037  2.436   .     S
Cu1010 Cu1043  2.756   .     S
Cu1010 Cu1081  2.881   .     S
Cu1010 Cu1039  2.392   .     S
Cu1010 Cu1062  2.730   .     S
Cu1011 Cu1122  2.625   .     S
Cu1011 Cu1126  2.659   .     S
Cu1011 Cu1037  2.734   .     S
Cu1011 Cu1054  2.500   .     S
Cu1012 Zn1133  2.806   .     S
Cu1012 Cu1134  2.613   .     S
Cu1012 Cu1013  2.608   .     S
Cu1012 Cu1035  2.580   .     S
Cu1012 Cu1124  2.600   .     S
Cu1012 Cu1029  2.623   .     S
Cu1012 Cu1064  2.503   .     S
Cu1013 Zn1133  2.695   .     S
Cu1013 Cu1035  2.438   .     S
Cu1013 Cu1083  2.770   .     S
Cu1013 Cu1029  2.784   .     S
Cu1014 Zn1015  2.598   .     S
Zn1015 Zn1021  3.161   .     S
Zn1016 Zn1053  2.536   .     S
Zn1016 Zn1017  2.586   .     S
Zn1017 Cu1050  2.572   .     S
Cu1018 Cu1064  2.573   .     S
Cu1018 Zn1114  2.560   .     S
Cu1018 Cu1024  3.085   .     S
Cu1018 Zn1019  2.578   .     S
Cu1018 Cu1091  2.807   .     S
Cu1018 Zn1040  2.524   .     S
Zn1019 Zn1098  2.681   .     S
Zn1019 Cu1059  2.518   .     S
Cu1020 Zn1143  2.743   .     S
Cu1020 Cu1042  2.638   .     S
Cu1020 Cu1096  2.631   .     S
Cu1020 Cu1044  2.585   .     S
Cu1020 Cu1047  2.654   .     S
Cu1020 Cu1048  2.644   .     S
Cu1022 Cu1049  2.659   .     S
Cu1022 Cu1043  2.581   .     S
Cu1022 Cu1081  2.660   .     S
Cu1023 Zn1089  2.688   .     S
Cu1023 Zn1076  2.482   .     S
Cu1024 Cu1029  2.345   .     S
Cu1024 Zn1139  2.475   .     S
Cu1024 Cu1051  2.588   .     S
Cu1024 Cu1066  2.582   .     S
Cu1024 Cu1091  2.508   .     S
Cu1025 Zn1118  2.672   .     S
Cu1025 Zn1060  2.431   .     S
Cu1025 Cu1087  2.696   .     S
Cu1025 Cu1061  2.402   .     S
Cu1026 Zn1065  2.817   .     S
Cu1026 Zn1058  2.857   .     S
Cu1026 Zn1093  2.481   .     S
Cu1026 Zn1095  2.636   .     S
Cu1026 Cu1028  2.409   .     S
Cu1027 Cu1142  2.717   .     S
Cu1027 Zn1068  2.604   .     S
Cu1027 Cu1084  2.913   .     S
Cu1027 Zn1151  2.952   .     S
Cu1027 Zn1052  2.699   .     S
Cu1027 Cu1071  2.655   .     S
Cu1028 Cu1106  2.513   .     S
Cu1028 Cu1075  2.688   .     S
Cu1028 Cu1074  2.522   .     S
Cu1028 Zn1095  2.550   .     S
Cu1028 Cu1070  2.436   .     S
Cu1029 Zn1139  2.714   .     S
Cu1029 Cu1051  2.807   .     S
Cu1029 Cu1083  2.754   .     S
Cu1029 Cu1134  2.498   .     S
Cu1030 Cu1059  2.588   .     S
Cu1030 Zn1080  2.388   .     S
Cu1030 Zn1098  2.591   .     S
Cu1031 Cu1054  2.641   .     S
Cu1031 Zn1146  2.638   .     S
Cu1031 Cu1048  2.491   .     S
Cu1031 Cu1127  2.763   .     S
Cu1031 Cu1079  2.585   .     S
Cu1031 Cu1141  2.573   .     S
Cu1031 Cu1071  2.450   .     S
Cu1032 Zn1077  2.488   .     S
Cu1032 Cu1049  2.511   .     S
Cu1033 Cu1117  2.534   .     S
Cu1034 Cu1117  2.358   .     S
Cu1034 Zn1068  2.835   .     S
Cu1034 Zn1150  2.377   .     S
Cu1034 Cu1054  2.851   .     S
Cu1035 Cu1108  2.558   .     S
Cu1035 Zn1097  2.798   .     S
Cu1035 Zn1133  2.650   .     S
Cu1036 Zn1118  2.471   .     S
Cu1036 Cu1090  2.704   .     S
Cu1036 Cu1061  2.721   .     S
Cu1036 Cu1067  2.662   .     S
Cu1037 Zn1102  2.739   .     S
Cu1037 Cu1137  2.652   .     S
Cu1037 Cu1112  2.707   .     S
Cu1037 Cu1122  2.631   .     S
Cu1038 Zn1103  2.588   .     S
Cu1038 Zn1097  2.467   .     S
Cu1038 Zn1111  2.664   .     S
Cu1039 Cu1128  2.609   .     S
Cu1039 Cu1043  2.847   .     S
Cu1039 Cu1042  2.557   .     S
Cu1039 Zn1116  2.468   .     S
Cu1039 Cu1069  2.784   .     S
Zn1040 Cu1091  2.934   .     S
Zn1040 Zn1076  2.470   .     S
Zn1040 Zn1086  2.654   .     S
Cu1041 Cu1078  2.442   .     S
Cu1041 Zn1103  2.450   .     S
Cu1041 Zn1131  2.410   .     S
Cu1041 Cu1063  2.726   .     S
Cu1042 Zn1116  2.634   .     S
Cu1042 Cu1044  2.739   .     S
Cu1043 Cu1081  2.435   .     S
Cu1043 Cu1128  2.489   .     S
Cu1043 Cu1044  2.550   .     S
Cu1044 Cu1119  2.469   .     S
Cu1044 Cu1128  2.508   .     S
Cu1044 Cu1047  2.502   .     S
Cu1045 Zn1147  2.695   .     S
Cu1045 Cu1055  2.606   .     S
Cu1045 Cu1123  2.625   .     S
Cu1045 Cu1100  2.422   .     S
Cu1045 Cu1056  2.498   .     S
Zn1046 Cu1088  2.757   .     S
Zn1046 Zn1053  2.643   .     S
Zn1046 Zn1097  2.609   .     S
Zn1046 Zn1103  2.692   .     S
Cu1047 Cu1119  2.669   .     S
Cu1047 Cu1096  2.699   .     S
Cu1047 Zn1144  2.599   .     S
Cu1048 Cu1127  2.646   .     S
Cu1048 Cu1079  2.739   .     S
Cu1048 Cu1096  2.659   .     S
Cu1048 Zn1143  2.754   .     S
Cu1049 Cu1081  2.545   .     S
Cu1050 Cu1087  2.798   .     S
Cu1050 Zn1094  2.721   .     S
Cu1050 Zn1099  2.409   .     S
Cu1051 Cu1083  2.447   .     S
Cu1051 Zn1135  2.838   .     S
Cu1051 Zn1139  2.571   .     S
Cu1051 Cu1125  2.743   .     S
Cu1051 Cu1100  2.445   .     S
Cu1051 Cu1066  2.542   .     S
Zn1052 Cu1145  2.612   .     S
Zn1052 Cu1084  2.537   .     S
Zn1052 Zn1151  2.831   .     S
Zn1052 Cu1071  2.830   .     S
Zn1053 Cu1088  2.656   .     S
Cu1054 Zn1146  2.727   .     S
Cu1054 Cu1126  2.772   .     S
Cu1054 Zn1068  2.738   .     S
Cu1054 Zn1150  2.645   .     S
Cu1054 Cu1071  2.530   .     S
Cu1055 Cu1123  2.645   .     S
Cu1055 Zn1129  2.889   .     S
Cu1055 Cu1121  2.339   .     S
Cu1056 Zn1147  2.814   .     S
Cu1056 Cu1100  2.557   .     S
Cu1057 Cu1125  2.476   .     S
Cu1057 Cu1100  2.556   .     S
Cu1057 Cu1066  2.518   .     S
Cu1057 Zn1120  2.573   .     S
Cu1057 Cu1085  2.497   .     S
Zn1058 Zn1093  2.736   .     S
Zn1058 Cu1061  2.622   .     S
Zn1058 Cu1067  2.676   .     S
Zn1058 Zn1065  2.570   .     S
Cu1059 Cu1064  2.590   .     S
Zn1060 Cu1087  2.583   .     S
Zn1060 Cu1061  2.642   .     S
Zn1060 Zn1093  2.556   .     S
Cu1061 Cu1067  2.776   .     S
Cu1061 Zn1118  3.632   .     S
Cu1062 Zn1092  2.711   .     S
Cu1062 Cu1074  2.730   .     S
Cu1062 Zn1095  2.478   .     S
Cu1062 Cu1069  2.423   .     S
Cu1063 Cu1078  2.607   .     S
Cu1063 Zn1072  2.763   .     S
Cu1063 Cu1082  2.549   .     S
Cu1063 Zn1136  2.424   .     S
Cu1064 Zn1114  2.524   .     S
Cu1064 Zn1113  2.483   .     S
Cu1064 Cu1134  2.760   .     S
Zn1065 Zn1077  2.865   .     S
Zn1065 Zn1095  2.618   .     S
Cu1066 Cu1125  2.652   .     S
Cu1066 Cu1091  2.765   .     S
Cu1066 Zn1101  2.404   .     S
Cu1067 Cu1090  2.836   .     S
Cu1067 Zn1077  2.370   .     S
Zn1068 Zn1150  2.478   .     S
Zn1068 Cu1142  2.624   .     S
Zn1068 Cu1071  2.639   .     S
Cu1069 Zn1092  2.718   .     S
Cu1069 Zn1080  2.697   .     S
Cu1070 Zn1093  2.804   .     S
Cu1070 Zn1099  2.533   .     S
Cu1070 Cu1075  2.638   .     S
Cu1071 Zn1146  2.569   .     S
Cu1071 Cu1142  2.534   .     S
Zn1072 Cu1082  2.513   .     S
Zn1073 Zn1104  2.571   .     S
Cu1074 Zn1095  2.722   .     S
Cu1074 Cu1106  2.543   .     S
Cu1074 Zn1092  2.452   .     S
Cu1075 Cu1107  2.429   .     S
Cu1075 Cu1110  2.480   .     S
Zn1076 Zn1086  2.704   .     S
Cu1078 Cu1082  2.636   .     S
Cu1079 Cu1141  2.563   .     S
Cu1079 Cu1096  2.543   .     S
Zn1080 Zn1092  2.676   .     S
Cu1083 Zn1135  2.780   .     S
Cu1083 Cu1100  2.807   .     S
Cu1084 Zn1151  2.820   .     S
Cu1085 Zn1120  2.579   .     S
Cu1085 Zn1101  2.586   .     S
Zn1086 Zn1101  2.711   .     S
Zn1086 Cu1091  2.498   .     S
Cu1087 Zn1094  2.728   .     S
Cu1091 Zn1101  2.481   .     S
Zn1093 Zn1099  2.626   .     S
Cu1096 Zn1144  2.511   .     S
Zn1097 Cu1108  2.610   .     S
Zn1097 Zn1130  2.708   .     S
Cu1100 Zn1149  2.850   .     S
Cu1100 Zn1147  2.928   .     S
Zn1102 Cu1137  2.779   .     S
Zn1105 Cu1112  2.386   .     S
Cu1106 Cu1107  2.347   .     S
Cu1106 Zn1109  2.652   .     S
Cu1107 Cu1110  2.563   .     S
Cu1107 Cu1108  2.423   .     S
Cu1107 Zn1109  2.545   .     S
Cu1107 Cu1124  2.746   .     S
Cu1108 Cu1110  2.737   .     S
Cu1108 Zn1130  2.872   .     S
Cu1108 Cu1124  2.463   .     S
Zn1109 Cu1124  2.674   .     S
Zn1109 Zn1113  2.842   .     S
Zn1111 Zn1131  2.531   .     S
Zn1111 Zn1130  2.612   .     S
Zn1111 Cu1121  2.635   .     S
Zn1111 Cu1115  2.712   .     S
Cu1112 Zn1148  4.600   .     S
Cu1112 Cu1122  4.778   .     S
Cu1112 Cu1137  4.083   .     S
Zn1113 Cu1134  2.488   .     S
Zn1113 Cu1124  2.715   .     S
Zn1114 Zn1139  2.733   .     S
Zn1114 Cu1134  2.579   .     S
Cu1115 Zn1140  2.544   .     S
Cu1115 Cu1121  3.004   .     S
Cu1115 Zn1138  2.584   .     S
Cu1115 Zn1133  2.596   .     S
Cu1115 Zn1130  2.570   .     S
Zn1116 Zn1152  2.550   .     S
Zn1116 Cu1128  2.558   .     S
Zn1116 Zn1148  2.699   .     S
Cu1117 Cu1126  2.571   .     S
Cu1117 Cu1137  2.556   .     S
Cu1119 Cu1128  2.493   .     S
Cu1119 Zn1152  2.441   .     S
Cu1119 Zn1144  2.633   .     S
Zn1120 Cu1125  2.557   .     S
Cu1121 Zn1138  2.796   .     S
Cu1121 Cu1123  2.666   .     S
Cu1121 Zn1129  2.467   .     S
Cu1121 Zn1131  2.586   .     S
Cu1122 Zn1148  2.483   .     S
Cu1122 Cu1127  2.609   .     S
Cu1122 Zn1143  2.563   .     S
Cu1122 Cu1126  2.550   .     S
Cu1122 Cu1137  2.558   .     S
Cu1123 Zn1129  2.556   .     S
Cu1123 Zn1138  2.737   .     S
Cu1123 Zn1147  2.507   .     S
Cu1124 Zn1133  2.402   .     S
Cu1125 Zn1149  2.672   .     S
Cu1125 Zn1135  2.550   .     S
Cu1126 Cu1137  2.492   .     S
Cu1126 Zn1146  2.741   .     S
Cu1126 Cu1127  2.592   .     S
Cu1126 Zn1150  2.731   .     S
Cu1127 Cu1141  2.662   .     S
Cu1127 Zn1132  2.531   .     S
Cu1127 Zn1143  2.468   .     S
Cu1127 Zn1146  2.595   .     S
Cu1128 Zn1152  2.529   .     S
Zn1129 Zn1131  2.927   .     S
Zn1130 Zn1133  2.628   .     S
Zn1132 Zn1144  2.593   .     S
Zn1132 Zn1143  2.653   .     S
Zn1132 Cu1141  2.405   .     S
Zn1133 Cu1134  2.580   .     S
Zn1133 Zn1140  2.586   .     S
Cu1134 Zn1140  2.481   .     S
Cu1134 Zn1139  2.806   .     S
Zn1135 Zn1139  2.651   .     S
Zn1135 Zn1140  2.781   .     S
Zn1135 Zn1138  2.590   .     S
Zn1135 Zn1149  2.806   .     S
Zn1138 Zn1140  2.752   .     S
Zn1139 Zn1140  2.721   .     S
Cu1141 Cu1145  2.575   .     S
Cu1141 Zn1146  2.541   .     S
Cu1142 Zn1150  2.817   .     S
Cu1142 Zn1151  2.838   .     S
Cu1142 Cu1145  2.595   .     S
Cu1142 Zn1146  2.478   .     S
Zn1143 Zn1152  2.691   .     S
Zn1143 Zn1144  2.604   .     S
Zn1143 Zn1148  2.653   .     S
Zn1144 Zn1152  2.743   .     S
Cu1145 Zn1146  2.626   .     S
Zn1146 Zn1150  2.940   .     S
Zn1147 Zn1149  2.491   .     S
Zn1148 Zn1152  2.707   .     S
