data_image0
_chemical_formula_structural       ZnCu3ZnCu3ZnCu3ZnCu3ZnCu3ZnCu3ZnCu3ZnCu3ZnCu3ZnCu3ZnCu3ZnCu3ZnCu3ZnCu3ZnCu3ZnCu3ZnCu3ZnCu3ZnCu3ZnCu3ZnCu3ZnCu3ZnCu3ZnCu3ZnCu3ZnCu3ZnCu3ZnCu3ZnCu3ZnCu3ZnCu3ZnCu3ZnCu3ZnCu3ZnCu3ZnCu3ZnCu3ZnCu3ZnCu3ZnCu3ZnCu3ZnCu3ZnCu3ZnCu3ZnCu3ZnCu3ZnCu3ZnCu3ZnCu3ZnCu3ZnCu3ZnCu3ZnCu3ZnCu3ZnCu3ZnCu3ZnCu3ZnCu3ZnCu3ZnCu3ZnCu3ZnCu3ZnCu3ZnCu3ZnCu3ZnCu3ZnCu3ZnCu3ZnCu3ZnCu3ZnCu3ZnCu3ZnCu3ZnCu3ZnCu3ZnCu3ZnCu3ZnCu3ZnCu3ZnCu3ZnCu3ZnCu3ZnCu3ZnCu3ZnCu3ZnCu3ZnCu3ZnCu3ZnCu3ZnCu3ZnCu3ZnCu3ZnCu3ZnCu3ZnCu3ZnCu3ZnCu3ZnCu3ZnCu3ZnCu3ZnCu3ZnCu3ZnCu3ZnCu3ZnCu3ZnCu3ZnCu3ZnCu3ZnCu3ZnCu3ZnCu3ZnCu3ZnCu3ZnCu3ZnCu3ZnCu3ZnCu3ZnCu3ZnCu3ZnCu3ZnCu3ZnCu3ZnCu3ZnCu3ZnCu3ZnCu3ZnCu3ZnCu3ZnCu3ZnCu3ZnCu3ZnCu3ZnCu3ZnCu3ZnCu3ZnCu3ZnCu3ZnCu3ZnCu3ZnCu3ZnCu3ZnCu3ZnCu3ZnCu16ZnCu12ZnCu7Zn2CuZnCu6Zn3CuZnCuZnCu6ZnCuZn2Cu16ZnCu2ZnCu2ZnCuZnCu2Zn2CuZn2Cu2ZnCu6Zn2CuZnCu9Zn2CuZn2Cu4ZnCu3Zn2CuZnCu4ZnCu4Zn2CuZnCu3ZnCu3ZnCuZn2Cu4ZnCuZnCuZnCuZnCu3ZnCu5ZnCu2ZnCu3ZnCuZnCu14ZnCu3ZnCu7Zn2Cu3Zn3Cu9ZnCu7Zn2Cu5ZnCu3ZnCu8ZnCu3ZnCuZn2Cu3ZnCu2ZnCu4ZnCu4ZnCuZnCu2ZnCu11ZnCu3ZnCu2ZnCuZnCu7ZnCu21ZnCu18ZnCu22ZnCu12ZnCu3ZnCu2ZnCu22Zn3Cu3ZnCuZn2Cu11ZnCuZnCu5ZnCu3ZnCu14ZnCu10ZnCu3ZnCu3ZnCuZnCuZnCu4ZnCuZnCu2ZnCuZnCuZnCu3Zn2Cu2ZnCu2Zn3Cu5Zn3CuZn20CuZn2Cu2ZnCu7ZnCuZn2Cu3Zn4CuZn
_chemical_formula_sum              "Zn288 Cu864"
_cell_length_a       30.3555
_cell_length_b       30.3555
_cell_length_c       36.5234
_cell_angle_alpha    90
_cell_angle_beta     90
_cell_angle_gamma    120

_space_group_name_H-M_alt    "P 1"
_space_group_IT_number       1

loop_
  _space_group_symop_operation_xyz
  'x, y, z'

loop_
  _atom_site_type_symbol
  _atom_site_label
  _atom_site_symmetry_multiplicity
  _atom_site_fract_x
  _atom_site_fract_y
  _atom_site_fract_z
  _atom_site_occupancy
  Zn  Zn1       1.0  0.05556  0.11111  0.05655  1.0000
  Cu  Cu1       1.0  0.05556  0.02778  0.05655  1.0000
  Cu  Cu2       1.0  0.13889  0.02778  0.05655  1.0000
  Cu  Cu3       1.0  0.13889  0.11111  0.05655  1.0000
  Zn  Zn2       1.0  0.22222  0.11111  0.05655  1.0000
  Cu  Cu4       1.0  0.22222  0.02778  0.05655  1.0000
  Cu  Cu5       1.0  0.30556  0.02778  0.05655  1.0000
  Cu  Cu6       1.0  0.30556  0.11111  0.05655  1.0000
  Zn  Zn3       1.0  0.38889  0.11111  0.05655  1.0000
  Cu  Cu7       1.0  0.38889  0.02778  0.05655  1.0000
  Cu  Cu8       1.0  0.47222  0.02778  0.05655  1.0000
  Cu  Cu9       1.0  0.47222  0.11111  0.05655  1.0000
  Zn  Zn4       1.0  0.55556  0.11111  0.05655  1.0000
  Cu  Cu10      1.0  0.55556  0.02778  0.05655  1.0000
  Cu  Cu11      1.0  0.63889  0.02778  0.05655  1.0000
  Cu  Cu12      1.0  0.63889  0.11111  0.05655  1.0000
  Zn  Zn5       1.0  0.72222  0.11111  0.05655  1.0000
  Cu  Cu13      1.0  0.72222  0.02778  0.05655  1.0000
  Cu  Cu14      1.0  0.80556  0.02778  0.05655  1.0000
  Cu  Cu15      1.0  0.80556  0.11111  0.05655  1.0000
  Zn  Zn6       1.0  0.88889  0.11111  0.05655  1.0000
  Cu  Cu16      1.0  0.88889  0.02778  0.05655  1.0000
  Cu  Cu17      1.0  0.97222  0.02778  0.05655  1.0000
  Cu  Cu18      1.0  0.97222  0.11111  0.05655  1.0000
  Zn  Zn7       1.0  0.05556  0.27778  0.05655  1.0000
  Cu  Cu19      1.0  0.05556  0.19444  0.05655  1.0000
  Cu  Cu20      1.0  0.13889  0.19444  0.05655  1.0000
  Cu  Cu21      1.0  0.13889  0.27778  0.05655  1.0000
  Zn  Zn8       1.0  0.22222  0.27778  0.05655  1.0000
  Cu  Cu22      1.0  0.22222  0.19444  0.05655  1.0000
  Cu  Cu23      1.0  0.30556  0.19444  0.05655  1.0000
  Cu  Cu24      1.0  0.30556  0.27778  0.05655  1.0000
  Zn  Zn9       1.0  0.38889  0.27778  0.05655  1.0000
  Cu  Cu25      1.0  0.38889  0.19444  0.05655  1.0000
  Cu  Cu26      1.0  0.47222  0.19444  0.05655  1.0000
  Cu  Cu27      1.0  0.47222  0.27778  0.05655  1.0000
  Zn  Zn10      1.0  0.55556  0.27778  0.05655  1.0000
  Cu  Cu28      1.0  0.55556  0.19444  0.05655  1.0000
  Cu  Cu29      1.0  0.63889  0.19444  0.05655  1.0000
  Cu  Cu30      1.0  0.63889  0.27778  0.05655  1.0000
  Zn  Zn11      1.0  0.72222  0.27778  0.05655  1.0000
  Cu  Cu31      1.0  0.72222  0.19444  0.05655  1.0000
  Cu  Cu32      1.0  0.80556  0.19444  0.05655  1.0000
  Cu  Cu33      1.0  0.80556  0.27778  0.05655  1.0000
  Zn  Zn12      1.0  0.88889  0.27778  0.05655  1.0000
  Cu  Cu34      1.0  0.88889  0.19444  0.05655  1.0000
  Cu  Cu35      1.0  0.97222  0.19444  0.05655  1.0000
  Cu  Cu36      1.0  0.97222  0.27778  0.05655  1.0000
  Zn  Zn13      1.0  0.05556  0.44444  0.05655  1.0000
  Cu  Cu37      1.0  0.05556  0.36111  0.05655  1.0000
  Cu  Cu38      1.0  0.13889  0.36111  0.05655  1.0000
  Cu  Cu39      1.0  0.13889  0.44444  0.05655  1.0000
  Zn  Zn14      1.0  0.22222  0.44444  0.05655  1.0000
  Cu  Cu40      1.0  0.22222  0.36111  0.05655  1.0000
  Cu  Cu41      1.0  0.30556  0.36111  0.05655  1.0000
  Cu  Cu42      1.0  0.30556  0.44444  0.05655  1.0000
  Zn  Zn15      1.0  0.38889  0.44444  0.05655  1.0000
  Cu  Cu43      1.0  0.38889  0.36111  0.05655  1.0000
  Cu  Cu44      1.0  0.47222  0.36111  0.05655  1.0000
  Cu  Cu45      1.0  0.47222  0.44444  0.05655  1.0000
  Zn  Zn16      1.0  0.55556  0.44444  0.05655  1.0000
  Cu  Cu46      1.0  0.55556  0.36111  0.05655  1.0000
  Cu  Cu47      1.0  0.63889  0.36111  0.05655  1.0000
  Cu  Cu48      1.0  0.63889  0.44444  0.05655  1.0000
  Zn  Zn17      1.0  0.72222  0.44444  0.05655  1.0000
  Cu  Cu49      1.0  0.72222  0.36111  0.05655  1.0000
  Cu  Cu50      1.0  0.80556  0.36111  0.05655  1.0000
  Cu  Cu51      1.0  0.80556  0.44444  0.05655  1.0000
  Zn  Zn18      1.0  0.88889  0.44444  0.05655  1.0000
  Cu  Cu52      1.0  0.88889  0.36111  0.05655  1.0000
  Cu  Cu53      1.0  0.97222  0.36111  0.05655  1.0000
  Cu  Cu54      1.0  0.97222  0.44444  0.05655  1.0000
  Zn  Zn19      1.0  0.05556  0.61111  0.05655  1.0000
  Cu  Cu55      1.0  0.05556  0.52778  0.05655  1.0000
  Cu  Cu56      1.0  0.13889  0.52778  0.05655  1.0000
  Cu  Cu57      1.0  0.13889  0.61111  0.05655  1.0000
  Zn  Zn20      1.0  0.22222  0.61111  0.05655  1.0000
  Cu  Cu58      1.0  0.22222  0.52778  0.05655  1.0000
  Cu  Cu59      1.0  0.30556  0.52778  0.05655  1.0000
  Cu  Cu60      1.0  0.30556  0.61111  0.05655  1.0000
  Zn  Zn21      1.0  0.38889  0.61111  0.05655  1.0000
  Cu  Cu61      1.0  0.38889  0.52778  0.05655  1.0000
  Cu  Cu62      1.0  0.47222  0.52778  0.05655  1.0000
  Cu  Cu63      1.0  0.47222  0.61111  0.05655  1.0000
  Zn  Zn22      1.0  0.55556  0.61111  0.05655  1.0000
  Cu  Cu64      1.0  0.55556  0.52778  0.05655  1.0000
  Cu  Cu65      1.0  0.63889  0.52778  0.05655  1.0000
  Cu  Cu66      1.0  0.63889  0.61111  0.05655  1.0000
  Zn  Zn23      1.0  0.72222  0.61111  0.05655  1.0000
  Cu  Cu67      1.0  0.72222  0.52778  0.05655  1.0000
  Cu  Cu68      1.0  0.80556  0.52778  0.05655  1.0000
  Cu  Cu69      1.0  0.80556  0.61111  0.05655  1.0000
  Zn  Zn24      1.0  0.88889  0.61111  0.05655  1.0000
  Cu  Cu70      1.0  0.88889  0.52778  0.05655  1.0000
  Cu  Cu71      1.0  0.97222  0.52778  0.05655  1.0000
  Cu  Cu72      1.0  0.97222  0.61111  0.05655  1.0000
  Zn  Zn25      1.0  0.05556  0.77778  0.05655  1.0000
  Cu  Cu73      1.0  0.05556  0.69444  0.05655  1.0000
  Cu  Cu74      1.0  0.13889  0.69444  0.05655  1.0000
  Cu  Cu75      1.0  0.13889  0.77778  0.05655  1.0000
  Zn  Zn26      1.0  0.22222  0.77778  0.05655  1.0000
  Cu  Cu76      1.0  0.22222  0.69444  0.05655  1.0000
  Cu  Cu77      1.0  0.30556  0.69444  0.05655  1.0000
  Cu  Cu78      1.0  0.30556  0.77778  0.05655  1.0000
  Zn  Zn27      1.0  0.38889  0.77778  0.05655  1.0000
  Cu  Cu79      1.0  0.38889  0.69444  0.05655  1.0000
  Cu  Cu80      1.0  0.47222  0.69444  0.05655  1.0000
  Cu  Cu81      1.0  0.47222  0.77778  0.05655  1.0000
  Zn  Zn28      1.0  0.55556  0.77778  0.05655  1.0000
  Cu  Cu82      1.0  0.55556  0.69444  0.05655  1.0000
  Cu  Cu83      1.0  0.63889  0.69444  0.05655  1.0000
  Cu  Cu84      1.0  0.63889  0.77778  0.05655  1.0000
  Zn  Zn29      1.0  0.72222  0.77778  0.05655  1.0000
  Cu  Cu85      1.0  0.72222  0.69444  0.05655  1.0000
  Cu  Cu86      1.0  0.80556  0.69444  0.05655  1.0000
  Cu  Cu87      1.0  0.80556  0.77778  0.05655  1.0000
  Zn  Zn30      1.0  0.88889  0.77778  0.05655  1.0000
  Cu  Cu88      1.0  0.88889  0.69444  0.05655  1.0000
  Cu  Cu89      1.0  0.97222  0.69444  0.05655  1.0000
  Cu  Cu90      1.0  0.97222  0.77778  0.05655  1.0000
  Zn  Zn31      1.0  0.05556  0.94444  0.05655  1.0000
  Cu  Cu91      1.0  0.05556  0.86111  0.05655  1.0000
  Cu  Cu92      1.0  0.13889  0.86111  0.05655  1.0000
  Cu  Cu93      1.0  0.13889  0.94444  0.05655  1.0000
  Zn  Zn32      1.0  0.22222  0.94444  0.05655  1.0000
  Cu  Cu94      1.0  0.22222  0.86111  0.05655  1.0000
  Cu  Cu95      1.0  0.30556  0.86111  0.05655  1.0000
  Cu  Cu96      1.0  0.30556  0.94444  0.05655  1.0000
  Zn  Zn33      1.0  0.38889  0.94444  0.05655  1.0000
  Cu  Cu97      1.0  0.38889  0.86111  0.05655  1.0000
  Cu  Cu98      1.0  0.47222  0.86111  0.05655  1.0000
  Cu  Cu99      1.0  0.47222  0.94444  0.05655  1.0000
  Zn  Zn34      1.0  0.55556  0.94444  0.05655  1.0000
  Cu  Cu100     1.0  0.55556  0.86111  0.05655  1.0000
  Cu  Cu101     1.0  0.63889  0.86111  0.05655  1.0000
  Cu  Cu102     1.0  0.63889  0.94444  0.05655  1.0000
  Zn  Zn35      1.0  0.72222  0.94444  0.05655  1.0000
  Cu  Cu103     1.0  0.72222  0.86111  0.05655  1.0000
  Cu  Cu104     1.0  0.80556  0.86111  0.05655  1.0000
  Cu  Cu105     1.0  0.80556  0.94444  0.05655  1.0000
  Zn  Zn36      1.0  0.88889  0.94444  0.05655  1.0000
  Cu  Cu106     1.0  0.88889  0.86111  0.05655  1.0000
  Cu  Cu107     1.0  0.97222  0.86111  0.05655  1.0000
  Cu  Cu108     1.0  0.97222  0.94444  0.05655  1.0000
  Zn  Zn37      1.0  0.00000  0.00000  0.11310  1.0000
  Cu  Cu109     1.0  0.00000  0.08333  0.11310  1.0000
  Cu  Cu110     1.0  0.08333  0.08333  0.11310  1.0000
  Cu  Cu111     1.0  0.08333  0.00000  0.11310  1.0000
  Zn  Zn38      1.0  0.16667  0.00000  0.11310  1.0000
  Cu  Cu112     1.0  0.16667  0.08333  0.11310  1.0000
  Cu  Cu113     1.0  0.25000  0.08333  0.11310  1.0000
  Cu  Cu114     1.0  0.25000  0.00000  0.11310  1.0000
  Zn  Zn39      1.0  0.33333  0.00000  0.11310  1.0000
  Cu  Cu115     1.0  0.33333  0.08333  0.11310  1.0000
  Cu  Cu116     1.0  0.41667  0.08333  0.11310  1.0000
  Cu  Cu117     1.0  0.41667  0.00000  0.11310  1.0000
  Zn  Zn40      1.0  0.50000  0.00000  0.11310  1.0000
  Cu  Cu118     1.0  0.50000  0.08333  0.11310  1.0000
  Cu  Cu119     1.0  0.58333  0.08333  0.11310  1.0000
  Cu  Cu120     1.0  0.58333  0.00000  0.11310  1.0000
  Zn  Zn41      1.0  0.66667  0.00000  0.11310  1.0000
  Cu  Cu121     1.0  0.66667  0.08333  0.11310  1.0000
  Cu  Cu122     1.0  0.75000  0.08333  0.11310  1.0000
  Cu  Cu123     1.0  0.75000  0.00000  0.11310  1.0000
  Zn  Zn42      1.0  0.83333  0.00000  0.11310  1.0000
  Cu  Cu124     1.0  0.83333  0.08333  0.11310  1.0000
  Cu  Cu125     1.0  0.91667  0.08333  0.11310  1.0000
  Cu  Cu126     1.0  0.91667  0.00000  0.11310  1.0000
  Zn  Zn43      1.0  0.00000  0.16667  0.11310  1.0000
  Cu  Cu127     1.0  0.00000  0.25000  0.11310  1.0000
  Cu  Cu128     1.0  0.08333  0.25000  0.11310  1.0000
  Cu  Cu129     1.0  0.08333  0.16667  0.11310  1.0000
  Zn  Zn44      1.0  0.16667  0.16667  0.11310  1.0000
  Cu  Cu130     1.0  0.16667  0.25000  0.11310  1.0000
  Cu  Cu131     1.0  0.25000  0.25000  0.11310  1.0000
  Cu  Cu132     1.0  0.25000  0.16667  0.11310  1.0000
  Zn  Zn45      1.0  0.33333  0.16667  0.11310  1.0000
  Cu  Cu133     1.0  0.33333  0.25000  0.11310  1.0000
  Cu  Cu134     1.0  0.41667  0.25000  0.11310  1.0000
  Cu  Cu135     1.0  0.41667  0.16667  0.11310  1.0000
  Zn  Zn46      1.0  0.50000  0.16667  0.11310  1.0000
  Cu  Cu136     1.0  0.50000  0.25000  0.11310  1.0000
  Cu  Cu137     1.0  0.58333  0.25000  0.11310  1.0000
  Cu  Cu138     1.0  0.58333  0.16667  0.11310  1.0000
  Zn  Zn47      1.0  0.66667  0.16667  0.11310  1.0000
  Cu  Cu139     1.0  0.66667  0.25000  0.11310  1.0000
  Cu  Cu140     1.0  0.75000  0.25000  0.11310  1.0000
  Cu  Cu141     1.0  0.75000  0.16667  0.11310  1.0000
  Zn  Zn48      1.0  0.83333  0.16667  0.11310  1.0000
  Cu  Cu142     1.0  0.83333  0.25000  0.11310  1.0000
  Cu  Cu143     1.0  0.91667  0.25000  0.11310  1.0000
  Cu  Cu144     1.0  0.91667  0.16667  0.11310  1.0000
  Zn  Zn49      1.0  0.00000  0.33333  0.11310  1.0000
  Cu  Cu145     1.0  0.00000  0.41667  0.11310  1.0000
  Cu  Cu146     1.0  0.08333  0.41667  0.11310  1.0000
  Cu  Cu147     1.0  0.08333  0.33333  0.11310  1.0000
  Zn  Zn50      1.0  0.16667  0.33333  0.11310  1.0000
  Cu  Cu148     1.0  0.16667  0.41667  0.11310  1.0000
  Cu  Cu149     1.0  0.25000  0.41667  0.11310  1.0000
  Cu  Cu150     1.0  0.25000  0.33333  0.11310  1.0000
  Zn  Zn51      1.0  0.33333  0.33333  0.11310  1.0000
  Cu  Cu151     1.0  0.33333  0.41667  0.11310  1.0000
  Cu  Cu152     1.0  0.41667  0.41667  0.11310  1.0000
  Cu  Cu153     1.0  0.41667  0.33333  0.11310  1.0000
  Zn  Zn52      1.0  0.50000  0.33333  0.11310  1.0000
  Cu  Cu154     1.0  0.50000  0.41667  0.11310  1.0000
  Cu  Cu155     1.0  0.58333  0.41667  0.11310  1.0000
  Cu  Cu156     1.0  0.58333  0.33333  0.11310  1.0000
  Zn  Zn53      1.0  0.66667  0.33333  0.11310  1.0000
  Cu  Cu157     1.0  0.66667  0.41667  0.11310  1.0000
  Cu  Cu158     1.0  0.75000  0.41667  0.11310  1.0000
  Cu  Cu159     1.0  0.75000  0.33333  0.11310  1.0000
  Zn  Zn54      1.0  0.83333  0.33333  0.11310  1.0000
  Cu  Cu160     1.0  0.83333  0.41667  0.11310  1.0000
  Cu  Cu161     1.0  0.91667  0.41667  0.11310  1.0000
  Cu  Cu162     1.0  0.91667  0.33333  0.11310  1.0000
  Zn  Zn55      1.0  0.00000  0.50000  0.11310  1.0000
  Cu  Cu163     1.0  0.00000  0.58333  0.11310  1.0000
  Cu  Cu164     1.0  0.08333  0.58333  0.11310  1.0000
  Cu  Cu165     1.0  0.08333  0.50000  0.11310  1.0000
  Zn  Zn56      1.0  0.16667  0.50000  0.11310  1.0000
  Cu  Cu166     1.0  0.16667  0.58333  0.11310  1.0000
  Cu  Cu167     1.0  0.25000  0.58333  0.11310  1.0000
  Cu  Cu168     1.0  0.25000  0.50000  0.11310  1.0000
  Zn  Zn57      1.0  0.33333  0.50000  0.11310  1.0000
  Cu  Cu169     1.0  0.33333  0.58333  0.11310  1.0000
  Cu  Cu170     1.0  0.41667  0.58333  0.11310  1.0000
  Cu  Cu171     1.0  0.41667  0.50000  0.11310  1.0000
  Zn  Zn58      1.0  0.50000  0.50000  0.11310  1.0000
  Cu  Cu172     1.0  0.50000  0.58333  0.11310  1.0000
  Cu  Cu173     1.0  0.58333  0.58333  0.11310  1.0000
  Cu  Cu174     1.0  0.58333  0.50000  0.11310  1.0000
  Zn  Zn59      1.0  0.66667  0.50000  0.11310  1.0000
  Cu  Cu175     1.0  0.66667  0.58333  0.11310  1.0000
  Cu  Cu176     1.0  0.75000  0.58333  0.11310  1.0000
  Cu  Cu177     1.0  0.75000  0.50000  0.11310  1.0000
  Zn  Zn60      1.0  0.83333  0.50000  0.11310  1.0000
  Cu  Cu178     1.0  0.83333  0.58333  0.11310  1.0000
  Cu  Cu179     1.0  0.91667  0.58333  0.11310  1.0000
  Cu  Cu180     1.0  0.91667  0.50000  0.11310  1.0000
  Zn  Zn61      1.0  0.00000  0.66667  0.11310  1.0000
  Cu  Cu181     1.0  0.00000  0.75000  0.11310  1.0000
  Cu  Cu182     1.0  0.08333  0.75000  0.11310  1.0000
  Cu  Cu183     1.0  0.08333  0.66667  0.11310  1.0000
  Zn  Zn62      1.0  0.16667  0.66667  0.11310  1.0000
  Cu  Cu184     1.0  0.16667  0.75000  0.11310  1.0000
  Cu  Cu185     1.0  0.25000  0.75000  0.11310  1.0000
  Cu  Cu186     1.0  0.25000  0.66667  0.11310  1.0000
  Zn  Zn63      1.0  0.33333  0.66667  0.11310  1.0000
  Cu  Cu187     1.0  0.33333  0.75000  0.11310  1.0000
  Cu  Cu188     1.0  0.41667  0.75000  0.11310  1.0000
  Cu  Cu189     1.0  0.41667  0.66667  0.11310  1.0000
  Zn  Zn64      1.0  0.50000  0.66667  0.11310  1.0000
  Cu  Cu190     1.0  0.50000  0.75000  0.11310  1.0000
  Cu  Cu191     1.0  0.58333  0.75000  0.11310  1.0000
  Cu  Cu192     1.0  0.58333  0.66667  0.11310  1.0000
  Zn  Zn65      1.0  0.66667  0.66667  0.11310  1.0000
  Cu  Cu193     1.0  0.66667  0.75000  0.11310  1.0000
  Cu  Cu194     1.0  0.75000  0.75000  0.11310  1.0000
  Cu  Cu195     1.0  0.75000  0.66667  0.11310  1.0000
  Zn  Zn66      1.0  0.83333  0.66667  0.11310  1.0000
  Cu  Cu196     1.0  0.83333  0.75000  0.11310  1.0000
  Cu  Cu197     1.0  0.91667  0.75000  0.11310  1.0000
  Cu  Cu198     1.0  0.91667  0.66667  0.11310  1.0000
  Zn  Zn67      1.0  0.00000  0.83333  0.11310  1.0000
  Cu  Cu199     1.0  0.00000  0.91667  0.11310  1.0000
  Cu  Cu200     1.0  0.08333  0.91667  0.11310  1.0000
  Cu  Cu201     1.0  0.08333  0.83333  0.11310  1.0000
  Zn  Zn68      1.0  0.16667  0.83333  0.11310  1.0000
  Cu  Cu202     1.0  0.16667  0.91667  0.11310  1.0000
  Cu  Cu203     1.0  0.25000  0.91667  0.11310  1.0000
  Cu  Cu204     1.0  0.25000  0.83333  0.11310  1.0000
  Zn  Zn69      1.0  0.33333  0.83333  0.11310  1.0000
  Cu  Cu205     1.0  0.33333  0.91667  0.11310  1.0000
  Cu  Cu206     1.0  0.41667  0.91667  0.11310  1.0000
  Cu  Cu207     1.0  0.41667  0.83333  0.11310  1.0000
  Zn  Zn70      1.0  0.50000  0.83333  0.11310  1.0000
  Cu  Cu208     1.0  0.50000  0.91667  0.11310  1.0000
  Cu  Cu209     1.0  0.58333  0.91667  0.11310  1.0000
  Cu  Cu210     1.0  0.58333  0.83333  0.11310  1.0000
  Zn  Zn71      1.0  0.66667  0.83333  0.11310  1.0000
  Cu  Cu211     1.0  0.66667  0.91667  0.11310  1.0000
  Cu  Cu212     1.0  0.75000  0.91667  0.11310  1.0000
  Cu  Cu213     1.0  0.75000  0.83333  0.11310  1.0000
  Zn  Zn72      1.0  0.83333  0.83333  0.11310  1.0000
  Cu  Cu214     1.0  0.83333  0.91667  0.11310  1.0000
  Cu  Cu215     1.0  0.91667  0.91667  0.11310  1.0000
  Cu  Cu216     1.0  0.91667  0.83333  0.11310  1.0000
  Zn  Zn73      1.0  0.11111  0.05556  0.16965  1.0000
  Cu  Cu217     1.0  0.11111  0.13889  0.16965  1.0000
  Cu  Cu218     1.0  0.02778  0.13889  0.16965  1.0000
  Cu  Cu219     1.0  0.02778  0.05556  0.16965  1.0000
  Zn  Zn74      1.0  0.27778  0.05556  0.16965  1.0000
  Cu  Cu220     1.0  0.27778  0.13889  0.16965  1.0000
  Cu  Cu221     1.0  0.19444  0.13889  0.16965  1.0000
  Cu  Cu222     1.0  0.19444  0.05556  0.16965  1.0000
  Zn  Zn75      1.0  0.44444  0.05556  0.16965  1.0000
  Cu  Cu223     1.0  0.44444  0.13889  0.16965  1.0000
  Cu  Cu224     1.0  0.36111  0.13889  0.16965  1.0000
  Cu  Cu225     1.0  0.36111  0.05556  0.16965  1.0000
  Zn  Zn76      1.0  0.61111  0.05556  0.16965  1.0000
  Cu  Cu226     1.0  0.61111  0.13889  0.16965  1.0000
  Cu  Cu227     1.0  0.52778  0.13889  0.16965  1.0000
  Cu  Cu228     1.0  0.52778  0.05556  0.16965  1.0000
  Zn  Zn77      1.0  0.77778  0.05556  0.16965  1.0000
  Cu  Cu229     1.0  0.77778  0.13889  0.16965  1.0000
  Cu  Cu230     1.0  0.69444  0.13889  0.16965  1.0000
  Cu  Cu231     1.0  0.69444  0.05556  0.16965  1.0000
  Zn  Zn78      1.0  0.94444  0.05556  0.16965  1.0000
  Cu  Cu232     1.0  0.94444  0.13889  0.16965  1.0000
  Cu  Cu233     1.0  0.86111  0.13889  0.16965  1.0000
  Cu  Cu234     1.0  0.86111  0.05556  0.16965  1.0000
  Zn  Zn79      1.0  0.11111  0.22222  0.16965  1.0000
  Cu  Cu235     1.0  0.11111  0.30556  0.16965  1.0000
  Cu  Cu236     1.0  0.02778  0.30556  0.16965  1.0000
  Cu  Cu237     1.0  0.02778  0.22222  0.16965  1.0000
  Zn  Zn80      1.0  0.27778  0.22222  0.16965  1.0000
  Cu  Cu238     1.0  0.27778  0.30556  0.16965  1.0000
  Cu  Cu239     1.0  0.19444  0.30556  0.16965  1.0000
  Cu  Cu240     1.0  0.19444  0.22222  0.16965  1.0000
  Zn  Zn81      1.0  0.44444  0.22222  0.16965  1.0000
  Cu  Cu241     1.0  0.44444  0.30556  0.16965  1.0000
  Cu  Cu242     1.0  0.36111  0.30556  0.16965  1.0000
  Cu  Cu243     1.0  0.36111  0.22222  0.16965  1.0000
  Zn  Zn82      1.0  0.61111  0.22222  0.16965  1.0000
  Cu  Cu244     1.0  0.61111  0.30556  0.16965  1.0000
  Cu  Cu245     1.0  0.52778  0.30556  0.16965  1.0000
  Cu  Cu246     1.0  0.52778  0.22222  0.16965  1.0000
  Zn  Zn83      1.0  0.77778  0.22222  0.16965  1.0000
  Cu  Cu247     1.0  0.77778  0.30556  0.16965  1.0000
  Cu  Cu248     1.0  0.69444  0.30556  0.16965  1.0000
  Cu  Cu249     1.0  0.69444  0.22222  0.16965  1.0000
  Zn  Zn84      1.0  0.94444  0.22222  0.16965  1.0000
  Cu  Cu250     1.0  0.94444  0.30556  0.16965  1.0000
  Cu  Cu251     1.0  0.86111  0.30556  0.16965  1.0000
  Cu  Cu252     1.0  0.86111  0.22222  0.16965  1.0000
  Zn  Zn85      1.0  0.11111  0.38889  0.16965  1.0000
  Cu  Cu253     1.0  0.11111  0.47222  0.16965  1.0000
  Cu  Cu254     1.0  0.02778  0.47222  0.16965  1.0000
  Cu  Cu255     1.0  0.02778  0.38889  0.16965  1.0000
  Zn  Zn86      1.0  0.27778  0.38889  0.16965  1.0000
  Cu  Cu256     1.0  0.27778  0.47222  0.16965  1.0000
  Cu  Cu257     1.0  0.19444  0.47222  0.16965  1.0000
  Cu  Cu258     1.0  0.19444  0.38889  0.16965  1.0000
  Zn  Zn87      1.0  0.44444  0.38889  0.16965  1.0000
  Cu  Cu259     1.0  0.44444  0.47222  0.16965  1.0000
  Cu  Cu260     1.0  0.36111  0.47222  0.16965  1.0000
  Cu  Cu261     1.0  0.36111  0.38889  0.16965  1.0000
  Zn  Zn88      1.0  0.61111  0.38889  0.16965  1.0000
  Cu  Cu262     1.0  0.61111  0.47222  0.16965  1.0000
  Cu  Cu263     1.0  0.52778  0.47222  0.16965  1.0000
  Cu  Cu264     1.0  0.52778  0.38889  0.16965  1.0000
  Zn  Zn89      1.0  0.77778  0.38889  0.16965  1.0000
  Cu  Cu265     1.0  0.77778  0.47222  0.16965  1.0000
  Cu  Cu266     1.0  0.69444  0.47222  0.16965  1.0000
  Cu  Cu267     1.0  0.69444  0.38889  0.16965  1.0000
  Zn  Zn90      1.0  0.94444  0.38889  0.16965  1.0000
  Cu  Cu268     1.0  0.94444  0.47222  0.16965  1.0000
  Cu  Cu269     1.0  0.86111  0.47222  0.16965  1.0000
  Cu  Cu270     1.0  0.86111  0.38889  0.16965  1.0000
  Zn  Zn91      1.0  0.11111  0.55556  0.16965  1.0000
  Cu  Cu271     1.0  0.11111  0.63889  0.16965  1.0000
  Cu  Cu272     1.0  0.02778  0.63889  0.16965  1.0000
  Cu  Cu273     1.0  0.02778  0.55556  0.16965  1.0000
  Zn  Zn92      1.0  0.27778  0.55556  0.16965  1.0000
  Cu  Cu274     1.0  0.27778  0.63889  0.16965  1.0000
  Cu  Cu275     1.0  0.19444  0.63889  0.16965  1.0000
  Cu  Cu276     1.0  0.19444  0.55556  0.16965  1.0000
  Zn  Zn93      1.0  0.44444  0.55556  0.16965  1.0000
  Cu  Cu277     1.0  0.44444  0.63889  0.16965  1.0000
  Cu  Cu278     1.0  0.36111  0.63889  0.16965  1.0000
  Cu  Cu279     1.0  0.36111  0.55556  0.16965  1.0000
  Zn  Zn94      1.0  0.61111  0.55556  0.16965  1.0000
  Cu  Cu280     1.0  0.61111  0.63889  0.16965  1.0000
  Cu  Cu281     1.0  0.52778  0.63889  0.16965  1.0000
  Cu  Cu282     1.0  0.52778  0.55556  0.16965  1.0000
  Zn  Zn95      1.0  0.77778  0.55556  0.16965  1.0000
  Cu  Cu283     1.0  0.77778  0.63889  0.16965  1.0000
  Cu  Cu284     1.0  0.69444  0.63889  0.16965  1.0000
  Cu  Cu285     1.0  0.69444  0.55556  0.16965  1.0000
  Zn  Zn96      1.0  0.94444  0.55556  0.16965  1.0000
  Cu  Cu286     1.0  0.94444  0.63889  0.16965  1.0000
  Cu  Cu287     1.0  0.86111  0.63889  0.16965  1.0000
  Cu  Cu288     1.0  0.86111  0.55556  0.16965  1.0000
  Zn  Zn97      1.0  0.11111  0.72222  0.16965  1.0000
  Cu  Cu289     1.0  0.11111  0.80556  0.16965  1.0000
  Cu  Cu290     1.0  0.02778  0.80556  0.16965  1.0000
  Cu  Cu291     1.0  0.02778  0.72222  0.16965  1.0000
  Zn  Zn98      1.0  0.27778  0.72222  0.16965  1.0000
  Cu  Cu292     1.0  0.27778  0.80556  0.16965  1.0000
  Cu  Cu293     1.0  0.19444  0.80556  0.16965  1.0000
  Cu  Cu294     1.0  0.19444  0.72222  0.16965  1.0000
  Zn  Zn99      1.0  0.44444  0.72222  0.16965  1.0000
  Cu  Cu295     1.0  0.44444  0.80556  0.16965  1.0000
  Cu  Cu296     1.0  0.36111  0.80556  0.16965  1.0000
  Cu  Cu297     1.0  0.36111  0.72222  0.16965  1.0000
  Zn  Zn100     1.0  0.61111  0.72222  0.16965  1.0000
  Cu  Cu298     1.0  0.61111  0.80556  0.16965  1.0000
  Cu  Cu299     1.0  0.52778  0.80556  0.16965  1.0000
  Cu  Cu300     1.0  0.52778  0.72222  0.16965  1.0000
  Zn  Zn101     1.0  0.77778  0.72222  0.16965  1.0000
  Cu  Cu301     1.0  0.77778  0.80556  0.16965  1.0000
  Cu  Cu302     1.0  0.69444  0.80556  0.16965  1.0000
  Cu  Cu303     1.0  0.69444  0.72222  0.16965  1.0000
  Zn  Zn102     1.0  0.94444  0.72222  0.16965  1.0000
  Cu  Cu304     1.0  0.94444  0.80556  0.16965  1.0000
  Cu  Cu305     1.0  0.86111  0.80556  0.16965  1.0000
  Cu  Cu306     1.0  0.86111  0.72222  0.16965  1.0000
  Zn  Zn103     1.0  0.11111  0.88889  0.16965  1.0000
  Cu  Cu307     1.0  0.11111  0.97222  0.16965  1.0000
  Cu  Cu308     1.0  0.02778  0.97222  0.16965  1.0000
  Cu  Cu309     1.0  0.02778  0.88889  0.16965  1.0000
  Zn  Zn104     1.0  0.27778  0.88889  0.16965  1.0000
  Cu  Cu310     1.0  0.27778  0.97222  0.16965  1.0000
  Cu  Cu311     1.0  0.19444  0.97222  0.16965  1.0000
  Cu  Cu312     1.0  0.19444  0.88889  0.16965  1.0000
  Zn  Zn105     1.0  0.44444  0.88889  0.16965  1.0000
  Cu  Cu313     1.0  0.44444  0.97222  0.16965  1.0000
  Cu  Cu314     1.0  0.36111  0.97222  0.16965  1.0000
  Cu  Cu315     1.0  0.36111  0.88889  0.16965  1.0000
  Zn  Zn106     1.0  0.61111  0.88889  0.16965  1.0000
  Cu  Cu316     1.0  0.61111  0.97222  0.16965  1.0000
  Cu  Cu317     1.0  0.52778  0.97222  0.16965  1.0000
  Cu  Cu318     1.0  0.52778  0.88889  0.16965  1.0000
  Zn  Zn107     1.0  0.77778  0.88889  0.16965  1.0000
  Cu  Cu319     1.0  0.77778  0.97222  0.16965  1.0000
  Cu  Cu320     1.0  0.69444  0.97222  0.16965  1.0000
  Cu  Cu321     1.0  0.69444  0.88889  0.16965  1.0000
  Zn  Zn108     1.0  0.94444  0.88889  0.16965  1.0000
  Cu  Cu322     1.0  0.94444  0.97222  0.16965  1.0000
  Cu  Cu323     1.0  0.86111  0.97222  0.16965  1.0000
  Cu  Cu324     1.0  0.86111  0.88889  0.16965  1.0000
  Zn  Zn109     1.0  0.05556  0.11111  0.22620  1.0000
  Cu  Cu325     1.0  0.05556  0.02778  0.22620  1.0000
  Cu  Cu326     1.0  0.13889  0.02778  0.22620  1.0000
  Cu  Cu327     1.0  0.13889  0.11111  0.22620  1.0000
  Zn  Zn110     1.0  0.22222  0.11111  0.22620  1.0000
  Cu  Cu328     1.0  0.22222  0.02778  0.22620  1.0000
  Cu  Cu329     1.0  0.30556  0.02778  0.22620  1.0000
  Cu  Cu330     1.0  0.30556  0.11111  0.22620  1.0000
  Zn  Zn111     1.0  0.38889  0.11111  0.22620  1.0000
  Cu  Cu331     1.0  0.38889  0.02778  0.22620  1.0000
  Cu  Cu332     1.0  0.47222  0.02778  0.22620  1.0000
  Cu  Cu333     1.0  0.47222  0.11111  0.22620  1.0000
  Zn  Zn112     1.0  0.55556  0.11111  0.22620  1.0000
  Cu  Cu334     1.0  0.55556  0.02778  0.22620  1.0000
  Cu  Cu335     1.0  0.63889  0.02778  0.22620  1.0000
  Cu  Cu336     1.0  0.63889  0.11111  0.22620  1.0000
  Zn  Zn113     1.0  0.72222  0.11111  0.22620  1.0000
  Cu  Cu337     1.0  0.72222  0.02778  0.22620  1.0000
  Cu  Cu338     1.0  0.80556  0.02778  0.22620  1.0000
  Cu  Cu339     1.0  0.80556  0.11111  0.22620  1.0000
  Zn  Zn114     1.0  0.88889  0.11111  0.22620  1.0000
  Cu  Cu340     1.0  0.88889  0.02778  0.22620  1.0000
  Cu  Cu341     1.0  0.97222  0.02778  0.22620  1.0000
  Cu  Cu342     1.0  0.97222  0.11111  0.22620  1.0000
  Zn  Zn115     1.0  0.05556  0.27778  0.22620  1.0000
  Cu  Cu343     1.0  0.05556  0.19444  0.22620  1.0000
  Cu  Cu344     1.0  0.13889  0.19444  0.22620  1.0000
  Cu  Cu345     1.0  0.13889  0.27778  0.22620  1.0000
  Zn  Zn116     1.0  0.22222  0.27778  0.22620  1.0000
  Cu  Cu346     1.0  0.22222  0.19444  0.22620  1.0000
  Cu  Cu347     1.0  0.30556  0.19444  0.22620  1.0000
  Cu  Cu348     1.0  0.30556  0.27778  0.22620  1.0000
  Zn  Zn117     1.0  0.38889  0.27778  0.22620  1.0000
  Cu  Cu349     1.0  0.38889  0.19444  0.22620  1.0000
  Cu  Cu350     1.0  0.47222  0.19444  0.22620  1.0000
  Cu  Cu351     1.0  0.47222  0.27778  0.22620  1.0000
  Zn  Zn118     1.0  0.55556  0.27778  0.22620  1.0000
  Cu  Cu352     1.0  0.55556  0.19444  0.22620  1.0000
  Cu  Cu353     1.0  0.63889  0.19444  0.22620  1.0000
  Cu  Cu354     1.0  0.63889  0.27778  0.22620  1.0000
  Zn  Zn119     1.0  0.72222  0.27778  0.22620  1.0000
  Cu  Cu355     1.0  0.72222  0.19444  0.22620  1.0000
  Cu  Cu356     1.0  0.80556  0.19444  0.22620  1.0000
  Cu  Cu357     1.0  0.80556  0.27778  0.22620  1.0000
  Zn  Zn120     1.0  0.88889  0.27778  0.22620  1.0000
  Cu  Cu358     1.0  0.88889  0.19444  0.22620  1.0000
  Cu  Cu359     1.0  0.97222  0.19444  0.22620  1.0000
  Cu  Cu360     1.0  0.97222  0.27778  0.22620  1.0000
  Zn  Zn121     1.0  0.05556  0.44444  0.22620  1.0000
  Cu  Cu361     1.0  0.05556  0.36111  0.22620  1.0000
  Cu  Cu362     1.0  0.13889  0.36111  0.22620  1.0000
  Cu  Cu363     1.0  0.13889  0.44444  0.22620  1.0000
  Zn  Zn122     1.0  0.22222  0.44444  0.22620  1.0000
  Cu  Cu364     1.0  0.22222  0.36111  0.22620  1.0000
  Cu  Cu365     1.0  0.30556  0.36111  0.22620  1.0000
  Cu  Cu366     1.0  0.30556  0.44444  0.22620  1.0000
  Zn  Zn123     1.0  0.38889  0.44444  0.22620  1.0000
  Cu  Cu367     1.0  0.38889  0.36111  0.22620  1.0000
  Cu  Cu368     1.0  0.47222  0.36111  0.22620  1.0000
  Cu  Cu369     1.0  0.47222  0.44444  0.22620  1.0000
  Zn  Zn124     1.0  0.55556  0.44444  0.22620  1.0000
  Cu  Cu370     1.0  0.55556  0.36111  0.22620  1.0000
  Cu  Cu371     1.0  0.63889  0.36111  0.22620  1.0000
  Cu  Cu372     1.0  0.63889  0.44444  0.22620  1.0000
  Zn  Zn125     1.0  0.72222  0.44444  0.22620  1.0000
  Cu  Cu373     1.0  0.72222  0.36111  0.22620  1.0000
  Cu  Cu374     1.0  0.80556  0.36111  0.22620  1.0000
  Cu  Cu375     1.0  0.80556  0.44444  0.22620  1.0000
  Zn  Zn126     1.0  0.88889  0.44444  0.22620  1.0000
  Cu  Cu376     1.0  0.88889  0.36111  0.22620  1.0000
  Cu  Cu377     1.0  0.97222  0.36111  0.22620  1.0000
  Cu  Cu378     1.0  0.97222  0.44444  0.22620  1.0000
  Zn  Zn127     1.0  0.05556  0.61111  0.22620  1.0000
  Cu  Cu379     1.0  0.05556  0.52778  0.22620  1.0000
  Cu  Cu380     1.0  0.13889  0.52778  0.22620  1.0000
  Cu  Cu381     1.0  0.13889  0.61111  0.22620  1.0000
  Zn  Zn128     1.0  0.22222  0.61111  0.22620  1.0000
  Cu  Cu382     1.0  0.22222  0.52778  0.22620  1.0000
  Cu  Cu383     1.0  0.30556  0.52778  0.22620  1.0000
  Cu  Cu384     1.0  0.30556  0.61111  0.22620  1.0000
  Zn  Zn129     1.0  0.38889  0.61111  0.22620  1.0000
  Cu  Cu385     1.0  0.38889  0.52778  0.22620  1.0000
  Cu  Cu386     1.0  0.47222  0.52778  0.22620  1.0000
  Cu  Cu387     1.0  0.47222  0.61111  0.22620  1.0000
  Zn  Zn130     1.0  0.55556  0.61111  0.22620  1.0000
  Cu  Cu388     1.0  0.55556  0.52778  0.22620  1.0000
  Cu  Cu389     1.0  0.63889  0.52778  0.22620  1.0000
  Cu  Cu390     1.0  0.63889  0.61111  0.22620  1.0000
  Zn  Zn131     1.0  0.72222  0.61111  0.22620  1.0000
  Cu  Cu391     1.0  0.72222  0.52778  0.22620  1.0000
  Cu  Cu392     1.0  0.80556  0.52778  0.22620  1.0000
  Cu  Cu393     1.0  0.80556  0.61111  0.22620  1.0000
  Zn  Zn132     1.0  0.88889  0.61111  0.22620  1.0000
  Cu  Cu394     1.0  0.88889  0.52778  0.22620  1.0000
  Cu  Cu395     1.0  0.97222  0.52778  0.22620  1.0000
  Cu  Cu396     1.0  0.97222  0.61111  0.22620  1.0000
  Zn  Zn133     1.0  0.05556  0.77778  0.22620  1.0000
  Cu  Cu397     1.0  0.05556  0.69444  0.22620  1.0000
  Cu  Cu398     1.0  0.13889  0.69444  0.22620  1.0000
  Cu  Cu399     1.0  0.13889  0.77778  0.22620  1.0000
  Zn  Zn134     1.0  0.22222  0.77778  0.22620  1.0000
  Cu  Cu400     1.0  0.22222  0.69444  0.22620  1.0000
  Cu  Cu401     1.0  0.30556  0.69444  0.22620  1.0000
  Cu  Cu402     1.0  0.30556  0.77778  0.22620  1.0000
  Zn  Zn135     1.0  0.38889  0.77778  0.22620  1.0000
  Cu  Cu403     1.0  0.38889  0.69444  0.22620  1.0000
  Cu  Cu404     1.0  0.47222  0.69444  0.22620  1.0000
  Cu  Cu405     1.0  0.47222  0.77778  0.22620  1.0000
  Zn  Zn136     1.0  0.55556  0.77778  0.22620  1.0000
  Cu  Cu406     1.0  0.55556  0.69444  0.22620  1.0000
  Cu  Cu407     1.0  0.63889  0.69444  0.22620  1.0000
  Cu  Cu408     1.0  0.63889  0.77778  0.22620  1.0000
  Zn  Zn137     1.0  0.72222  0.77778  0.22620  1.0000
  Cu  Cu409     1.0  0.72222  0.69444  0.22620  1.0000
  Cu  Cu410     1.0  0.80556  0.69444  0.22620  1.0000
  Cu  Cu411     1.0  0.80556  0.77778  0.22620  1.0000
  Zn  Zn138     1.0  0.88889  0.77778  0.22620  1.0000
  Cu  Cu412     1.0  0.88889  0.69444  0.22620  1.0000
  Cu  Cu413     1.0  0.97222  0.69444  0.22620  1.0000
  Cu  Cu414     1.0  0.97222  0.77778  0.22620  1.0000
  Zn  Zn139     1.0  0.05556  0.94444  0.22620  1.0000
  Cu  Cu415     1.0  0.05556  0.86111  0.22620  1.0000
  Cu  Cu416     1.0  0.13889  0.86111  0.22620  1.0000
  Cu  Cu417     1.0  0.13889  0.94444  0.22620  1.0000
  Zn  Zn140     1.0  0.22222  0.94444  0.22620  1.0000
  Cu  Cu418     1.0  0.22222  0.86111  0.22620  1.0000
  Cu  Cu419     1.0  0.30556  0.86111  0.22620  1.0000
  Cu  Cu420     1.0  0.30556  0.94444  0.22620  1.0000
  Zn  Zn141     1.0  0.38889  0.94444  0.22620  1.0000
  Cu  Cu421     1.0  0.38889  0.86111  0.22620  1.0000
  Cu  Cu422     1.0  0.47222  0.86111  0.22620  1.0000
  Cu  Cu423     1.0  0.47222  0.94444  0.22620  1.0000
  Zn  Zn142     1.0  0.55556  0.94444  0.22620  1.0000
  Cu  Cu424     1.0  0.55556  0.86111  0.22620  1.0000
  Cu  Cu425     1.0  0.63889  0.86111  0.22620  1.0000
  Cu  Cu426     1.0  0.63889  0.94444  0.22620  1.0000
  Zn  Zn143     1.0  0.72222  0.94444  0.22620  1.0000
  Cu  Cu427     1.0  0.72222  0.86111  0.22620  1.0000
  Cu  Cu428     1.0  0.80556  0.86111  0.22620  1.0000
  Cu  Cu429     1.0  0.80556  0.94444  0.22620  1.0000
  Zn  Zn144     1.0  0.88889  0.94444  0.22620  1.0000
  Cu  Cu430     1.0  0.88889  0.86111  0.22620  1.0000
  Cu  Cu431     1.0  0.97222  0.86111  0.22620  1.0000
  Cu  Cu432     1.0  0.97222  0.94444  0.22620  1.0000
  Cu  Cu433     1.0  0.33765  0.75592  0.28905  1.0000
  Cu  Cu434     1.0  0.75124  0.08380  0.28301  1.0000
  Cu  Cu435     1.0  0.24895  0.33157  0.28624  1.0000
  Cu  Cu436     1.0  0.41960  0.24974  0.28796  1.0000
  Cu  Cu437     1.0  0.25236  0.58221  0.28500  1.0000
  Cu  Cu438     1.0  0.16296  0.91104  0.28583  1.0000
  Cu  Cu439     1.0  0.16947  0.41706  0.28818  1.0000
  Cu  Cu440     1.0  0.08279  0.25192  0.28974  1.0000
  Cu  Cu441     1.0  0.16874  0.75158  0.28216  1.0000
  Cu  Cu442     1.0  0.08768  0.66888  0.28610  1.0000
  Cu  Cu443     1.0  0.41412  0.33434  0.29004  1.0000
  Cu  Cu444     1.0  0.25374  0.67017  0.28516  1.0000
  Cu  Cu445     1.0  0.91604  0.66572  0.28775  1.0000
  Zn  Zn145     1.0  0.99903  0.84039  0.28421  1.0000
  Cu  Cu446     1.0  0.58377  0.58320  0.28459  1.0000
  Cu  Cu447     1.0  0.75202  0.16523  0.28583  1.0000
  Cu  Cu448     1.0  0.82908  0.74798  0.29018  1.0000
  Cu  Cu449     1.0  0.58128  0.66689  0.28633  1.0000
  Cu  Cu450     1.0  0.24727  0.91826  0.28833  1.0000
  Cu  Cu451     1.0  0.83351  0.07872  0.28375  1.0000
  Cu  Cu452     1.0  0.83396  0.90787  0.28487  1.0000
  Cu  Cu453     1.0  0.75185  0.99716  0.28523  1.0000
  Cu  Cu454     1.0  0.75136  0.91304  0.28630  1.0000
  Cu  Cu455     1.0  0.00192  0.25040  0.28591  1.0000
  Cu  Cu456     1.0  0.91602  0.99937  0.28673  1.0000
  Cu  Cu457     1.0  0.41425  0.75107  0.28292  1.0000
  Zn  Zn146     1.0  0.00084  0.66786  0.28655  1.0000
  Cu  Cu458     1.0  0.42339  0.41824  0.28796  1.0000
  Cu  Cu459     1.0  0.33519  0.41624  0.28254  1.0000
  Cu  Cu460     1.0  0.25467  0.75839  0.28375  1.0000
  Cu  Cu461     1.0  0.99873  0.75096  0.28432  1.0000
  Cu  Cu462     1.0  0.25071  0.41632  0.28708  1.0000
  Cu  Cu463     1.0  0.25383  0.49933  0.28559  1.0000
  Cu  Cu464     1.0  0.50061  0.57790  0.28541  1.0000
  Zn  Zn147     1.0  0.83362  0.67058  0.28904  1.0000
  Zn  Zn148     1.0  0.99415  0.99755  0.28719  1.0000
  Cu  Cu465     1.0  0.57983  0.33059  0.28368  1.0000
  Zn  Zn149     1.0  0.16072  0.83006  0.28667  1.0000
  Cu  Cu466     1.0  0.08451  0.33536  0.28595  1.0000
  Cu  Cu467     1.0  0.92072  0.58302  0.28771  1.0000
  Cu  Cu468     1.0  0.08308  0.75502  0.28325  1.0000
  Cu  Cu469     1.0  0.16264  0.25080  0.28952  1.0000
  Cu  Cu470     1.0  0.33269  0.24944  0.28693  1.0000
  Cu  Cu471     1.0  0.75579  0.58682  0.28646  1.0000
  Zn  Zn150     1.0  0.67391  0.17014  0.28578  1.0000
  Zn  Zn151     1.0  0.33664  0.49819  0.28496  1.0000
  Zn  Zn152     1.0  0.17252  0.49874  0.29241  1.0000
  Cu  Cu472     1.0  0.59171  0.00428  0.28531  1.0000
  Zn  Zn153     1.0  0.67195  0.00185  0.29033  1.0000
  Cu  Cu473     1.0  0.83395  0.41823  0.28524  1.0000
  Zn  Zn154     1.0  0.83168  0.99180  0.28624  1.0000
  Cu  Cu474     1.0  0.58027  0.24443  0.28427  1.0000
  Cu  Cu475     1.0  0.75915  0.25248  0.28805  1.0000
  Cu  Cu476     1.0  0.08217  0.16465  0.28550  1.0000
  Cu  Cu477     1.0  0.91664  0.32996  0.28058  1.0000
  Cu  Cu478     1.0  0.49777  0.24753  0.28604  1.0000
  Cu  Cu479     1.0  0.41874  0.00191  0.28367  1.0000
  Zn  Zn155     1.0  0.33216  0.33364  0.28441  1.0000
  Cu  Cu480     1.0  0.58229  0.91675  0.28940  1.0000
  Zn  Zn156     1.0  0.49637  0.83275  0.28891  1.0000
  Zn  Zn157     1.0  0.00445  0.33610  0.28964  1.0000
  Cu  Cu481     1.0  0.74934  0.83278  0.28542  1.0000
  Cu  Cu482     1.0  0.91517  0.75225  0.28810  1.0000
  Cu  Cu483     1.0  0.16828  0.58242  0.28649  1.0000
  Cu  Cu484     1.0  0.25101  0.24950  0.28740  1.0000
  Cu  Cu485     1.0  0.91746  0.49909  0.28280  1.0000
  Cu  Cu486     1.0  0.74679  0.66692  0.28611  1.0000
  Cu  Cu487     1.0  0.99736  0.08584  0.28576  1.0000
  Cu  Cu488     1.0  0.83775  0.25099  0.28778  1.0000
  Cu  Cu489     1.0  0.67134  0.91913  0.28084  1.0000
  Cu  Cu490     1.0  0.83836  0.58623  0.28525  1.0000
  Cu  Cu491     1.0  0.74705  0.74953  0.28286  1.0000
  Cu  Cu492     1.0  0.08532  0.49878  0.29026  1.0000
  Cu  Cu493     1.0  0.91309  0.08068  0.28118  1.0000
  Cu  Cu494     1.0  0.91247  0.83112  0.28423  1.0000
  Cu  Cu495     1.0  0.08482  0.58176  0.28433  1.0000
  Cu  Cu496     1.0  0.58841  0.50066  0.28352  1.0000
  Zn  Zn158     1.0  0.33295  0.00305  0.28912  1.0000
  Cu  Cu497     1.0  0.92028  0.25253  0.28902  1.0000
  Cu  Cu498     1.0  0.16197  0.08048  0.28291  1.0000
  Zn  Zn159     1.0  0.83655  0.50304  0.28643  1.0000
  Cu  Cu499     1.0  0.66417  0.74888  0.28468  1.0000
  Cu  Cu500     1.0  0.50311  0.41641  0.28857  1.0000
  Zn  Zn160     1.0  0.33437  0.66916  0.28553  1.0000
  Cu  Cu501     1.0  0.67008  0.08684  0.28555  1.0000
  Zn  Zn161     1.0  0.50259  0.66430  0.28389  1.0000
  Cu  Cu502     1.0  0.08777  0.41955  0.29133  1.0000
  Cu  Cu503     1.0  0.57877  0.74665  0.28172  1.0000
  Zn  Zn162     1.0  0.16517  0.16848  0.28775  1.0000
  Zn  Zn163     1.0  0.83332  0.33632  0.28393  1.0000
  Cu  Cu504     1.0  0.66919  0.58648  0.28499  1.0000
  Zn  Zn164     1.0  0.99929  0.49908  0.28755  1.0000
  Zn  Zn165     1.0  0.16849  0.66761  0.28707  1.0000
  Cu  Cu505     1.0  0.08310  0.92012  0.28615  1.0000
  Cu  Cu506     1.0  0.67250  0.42066  0.28578  1.0000
  Zn  Zn166     1.0  0.33448  0.83845  0.28476  1.0000
  Cu  Cu507     1.0  0.99155  0.91716  0.28606  1.0000
  Cu  Cu508     1.0  0.58251  0.16535  0.28692  1.0000
  Cu  Cu509     1.0  0.75426  0.41705  0.28348  1.0000
  Cu  Cu510     1.0  0.24607  0.16312  0.28518  1.0000
  Cu  Cu511     1.0  0.41846  0.49878  0.28957  1.0000
  Cu  Cu512     1.0  0.24792  0.00101  0.28458  1.0000
  Zn  Zn167     1.0  0.49721  0.16316  0.28592  1.0000
  Zn  Zn168     1.0  0.66267  0.82956  0.28318  1.0000
  Cu  Cu513     1.0  0.41608  0.16423  0.28303  1.0000
  Zn  Zn169     1.0  0.67445  0.50516  0.28906  1.0000
  Cu  Cu514     1.0  0.00145  0.58477  0.28511  1.0000
  Cu  Cu515     1.0  0.58782  0.41330  0.28681  1.0000
  Cu  Cu516     1.0  0.50449  0.91838  0.28534  1.0000
  Cu  Cu517     1.0  0.91934  0.16547  0.28551  1.0000
  Cu  Cu518     1.0  0.41699  0.91484  0.28745  1.0000
  Cu  Cu519     1.0  0.66701  0.25015  0.28464  1.0000
  Cu  Cu520     1.0  0.33631  0.92169  0.28501  1.0000
  Cu  Cu521     1.0  0.41798  0.08390  0.28723  1.0000
  Cu  Cu522     1.0  0.25035  0.84056  0.28696  1.0000
  Zn  Zn170     1.0  0.99847  0.16827  0.28949  1.0000
  Zn  Zn171     1.0  0.50300  0.99535  0.28923  1.0000
  Cu  Cu523     1.0  0.08241  0.99951  0.28462  1.0000
  Zn  Zn172     1.0  0.83613  0.16680  0.28550  1.0000
  Zn  Zn173     1.0  0.32958  0.16512  0.28723  1.0000
  Cu  Cu524     1.0  0.00104  0.41324  0.28496  1.0000
  Cu  Cu525     1.0  0.07993  0.83610  0.28626  1.0000
  Cu  Cu526     1.0  0.08116  0.08119  0.28403  1.0000
  Cu  Cu527     1.0  0.33133  0.08357  0.28848  1.0000
  Zn  Zn174     1.0  0.66627  0.66583  0.28730  1.0000
  Cu  Cu528     1.0  0.49560  0.74544  0.28970  1.0000
  Cu  Cu529     1.0  0.75670  0.50385  0.28869  1.0000
  Cu  Cu530     1.0  0.74666  0.33303  0.28800  1.0000
  Zn  Zn175     1.0  0.50569  0.49952  0.28754  1.0000
  Zn  Zn176     1.0  0.83287  0.83256  0.28798  1.0000
  Cu  Cu531     1.0  0.91919  0.41643  0.28757  1.0000
  Zn  Zn177     1.0  0.66758  0.33548  0.28436  1.0000
  Cu  Cu532     1.0  0.58417  0.08434  0.28676  1.0000
  Cu  Cu533     1.0  0.50022  0.07912  0.28974  1.0000
  Cu  Cu534     1.0  0.33302  0.58324  0.28727  1.0000
  Cu  Cu535     1.0  0.41794  0.83542  0.28864  1.0000
  Zn  Zn178     1.0  0.49605  0.33194  0.28329  1.0000
  Cu  Cu536     1.0  0.41827  0.58284  0.28549  1.0000
  Cu  Cu537     1.0  0.41924  0.66677  0.28501  1.0000
  Cu  Cu538     1.0  0.57781  0.83123  0.28211  1.0000
  Cu  Cu539     1.0  0.24714  0.08355  0.28762  1.0000
  Zn  Zn179     1.0  0.16671  0.99824  0.28464  1.0000
  Zn  Zn180     1.0  0.16820  0.33489  0.28775  1.0000
  Cu  Cu540     1.0  0.91438  0.91702  0.31935  1.0000
  Zn  Zn181     1.0  0.77497  0.88818  0.34589  1.0000
  Cu  Cu541     1.0  0.19529  0.72560  0.34234  1.0000
  Cu  Cu542     1.0  0.69368  0.13489  0.34646  1.0000
  Cu  Cu543     1.0  0.28083  0.63669  0.34524  1.0000
  Zn  Zn182     1.0  0.11371  0.55709  0.34466  1.0000
  Cu  Cu544     1.0  0.36159  0.88711  0.34658  1.0000
  Cu  Cu545     1.0  0.03576  0.30387  0.34623  1.0000
  Cu  Cu546     1.0  0.78085  0.96940  0.34746  1.0000
  Zn  Zn183     1.0  0.94385  0.21876  0.34699  1.0000
  Cu  Cu547     1.0  0.36571  0.30959  0.34887  1.0000
  Zn  Zn184     1.0  0.95041  0.72711  0.34708  1.0000
  Zn  Zn185     1.0  0.44785  0.22185  0.34603  1.0000
  Cu  Cu548     1.0  0.52988  0.88876  0.34994  1.0000
  Cu  Cu549     1.0  0.68737  0.96463  0.34285  1.0000
  Cu  Cu550     1.0  0.02521  0.97060  0.34713  1.0000
  Cu  Cu551     1.0  0.19232  0.63880  0.34836  1.0000
  Zn  Zn186     1.0  0.61144  0.71792  0.34472  1.0000
  Cu  Cu552     1.0  0.28070  0.30753  0.35013  1.0000
  Zn  Zn187     1.0  0.77787  0.04855  0.34776  1.0000
  Cu  Cu553     1.0  0.86348  0.05130  0.34280  1.0000
  Zn  Zn188     1.0  0.28273  0.72537  0.34637  1.0000
  Cu  Cu554     1.0  0.19759  0.47177  0.35180  1.0000
  Zn  Zn189     1.0  0.60995  0.05687  0.34107  1.0000
  Cu  Cu555     1.0  0.11288  0.63502  0.34728  1.0000
  Cu  Cu556     1.0  0.27715  0.81052  0.34570  1.0000
  Cu  Cu557     1.0  0.69880  0.05928  0.34618  1.0000
  Zn  Zn190     1.0  0.11415  0.21874  0.34632  1.0000
  Cu  Cu558     1.0  0.61085  0.97668  0.34947  1.0000
  Cu  Cu559     1.0  0.61410  0.63740  0.34296  1.0000
  Cu  Cu560     1.0  0.02413  0.88924  0.34690  1.0000
  Cu  Cu561     1.0  0.19615  0.21989  0.34423  1.0000
  Cu  Cu562     1.0  0.94514  0.30344  0.34426  1.0000
  Zn  Zn191     1.0  0.11245  0.72300  0.34614  1.0000
  Cu  Cu563     1.0  0.52648  0.30722  0.34218  1.0000
  Cu  Cu564     1.0  0.36288  0.38664  0.34197  1.0000
  Zn  Zn192     1.0  0.61324  0.21924  0.34699  1.0000
  Cu  Cu565     1.0  0.28054  0.97784  0.35102  1.0000
  Cu  Cu566     1.0  0.19368  0.80470  0.34003  1.0000
  Cu  Cu567     1.0  0.02794  0.80957  0.34184  1.0000
  Zn  Zn193     1.0  0.44739  0.39506  0.34761  1.0000
  Cu  Cu568     1.0  0.94671  0.81198  0.34496  1.0000
  Zn  Zn194     1.0  0.11953  0.39452  0.34949  1.0000
  Cu  Cu569     1.0  0.19546  0.13663  0.34387  1.0000
  Cu  Cu570     1.0  0.03020  0.13986  0.34657  1.0000
  Cu  Cu571     1.0  0.02919  0.55458  0.34473  1.0000
  Cu  Cu572     1.0  0.61443  0.47090  0.34381  1.0000
  Cu  Cu573     1.0  0.69995  0.64208  0.34535  1.0000
  Cu  Cu574     1.0  0.36252  0.72287  0.34649  1.0000
  Cu  Cu575     1.0  0.85730  0.12898  0.34381  1.0000
  Cu  Cu576     1.0  0.69731  0.72232  0.34903  1.0000
  Cu  Cu577     1.0  0.86700  0.96665  0.34576  1.0000
  Cu  Cu578     1.0  0.02783  0.63530  0.34941  1.0000
  Cu  Cu579     1.0  0.36424  0.47146  0.34809  1.0000
  Cu  Cu580     1.0  0.69303  0.88209  0.34120  1.0000
  Cu  Cu581     1.0  0.94478  0.63870  0.34967  1.0000
  Cu  Cu582     1.0  0.44916  0.47663  0.34567  1.0000
  Zn  Zn195     1.0  0.28187  0.38803  0.34526  1.0000
  Cu  Cu583     1.0  0.53078  0.63857  0.34534  1.0000
  Cu  Cu584     1.0  0.70079  0.21928  0.34523  1.0000
  Cu  Cu585     1.0  0.86880  0.82064  0.34436  1.0000
  Zn  Zn196     1.0  0.78381  0.56415  0.34840  1.0000
  Cu  Cu586     1.0  0.94434  0.13712  0.34635  1.0000
  Cu  Cu587     1.0  0.19967  0.89287  0.34509  1.0000
  Cu  Cu588     1.0  0.69991  0.55851  0.34385  1.0000
  Cu  Cu589     1.0  0.36364  0.80759  0.34929  1.0000
  Cu  Cu590     1.0  0.53686  0.56304  0.34338  1.0000
  Cu  Cu591     1.0  0.36213  0.22125  0.34525  1.0000
  Cu  Cu592     1.0  0.28282  0.47205  0.34544  1.0000
  Zn  Zn197     1.0  0.28404  0.55798  0.35025  1.0000
  Zn  Zn198     1.0  0.27884  0.89351  0.34537  1.0000
  Cu  Cu593     1.0  0.36489  0.97728  0.34894  1.0000
  Cu  Cu594     1.0  0.44544  0.80419  0.34718  1.0000
  Cu  Cu595     1.0  0.36306  0.14034  0.34886  1.0000
  Zn  Zn199     1.0  0.94659  0.05684  0.34679  1.0000
  Zn  Zn200     1.0  0.11000  0.89303  0.34418  1.0000
  Zn  Zn201     1.0  0.94446  0.55296  0.34326  1.0000
  Cu  Cu596     1.0  0.11858  0.80902  0.34713  1.0000
  Cu  Cu597     1.0  0.86193  0.55529  0.34742  1.0000
  Cu  Cu598     1.0  0.03370  0.22286  0.34823  1.0000
  Cu  Cu599     1.0  0.44286  0.14044  0.34439  1.0000
  Cu  Cu600     1.0  0.36294  0.05764  0.34887  1.0000
  Cu  Cu601     1.0  0.86584  0.64370  0.34609  1.0000
  Cu  Cu602     1.0  0.52810  0.05338  0.34911  1.0000
  Cu  Cu603     1.0  0.53360  0.47372  0.34749  1.0000
  Cu  Cu604     1.0  0.77801  0.13688  0.34376  1.0000
  Zn  Zn202     1.0  0.61545  0.55593  0.34651  1.0000
  Cu  Cu605     1.0  0.61620  0.13905  0.34724  1.0000
  Cu  Cu606     1.0  0.11235  0.47177  0.35037  1.0000
  Cu  Cu607     1.0  0.94615  0.47388  0.34813  1.0000
  Cu  Cu608     1.0  0.03096  0.72515  0.34536  1.0000
  Cu  Cu609     1.0  0.77942  0.80635  0.34221  1.0000
  Cu  Cu610     1.0  0.52986  0.22582  0.34669  1.0000
  Cu  Cu611     1.0  0.44397  0.97267  0.34835  1.0000
  Zn  Zn203     1.0  0.28243  0.22408  0.34774  1.0000
  Zn  Zn204     1.0  0.78329  0.72820  0.34842  1.0000
  Cu  Cu612     1.0  0.69234  0.80167  0.34343  1.0000
  Cu  Cu613     1.0  0.61152  0.30591  0.34385  1.0000
  Cu  Cu614     1.0  0.11795  0.13771  0.34601  1.0000
  Cu  Cu615     1.0  0.19707  0.55722  0.34584  1.0000
  Cu  Cu616     1.0  0.52577  0.80607  0.34619  1.0000
  Zn  Zn205     1.0  0.44524  0.88664  0.34617  1.0000
  Cu  Cu617     1.0  0.28034  0.13842  0.34721  1.0000
  Cu  Cu618     1.0  0.02810  0.05752  0.34249  1.0000
  Cu  Cu619     1.0  0.03357  0.39143  0.34712  1.0000
  Zn  Zn206     1.0  0.94641  0.38525  0.34448  1.0000
  Cu  Cu620     1.0  0.77580  0.30284  0.34940  1.0000
  Cu  Cu621     1.0  0.53381  0.13843  0.34739  1.0000
  Cu  Cu622     1.0  0.19681  0.30370  0.34870  1.0000
  Cu  Cu623     1.0  0.02663  0.46966  0.34412  1.0000
  Cu  Cu624     1.0  0.86361  0.21971  0.34744  1.0000
  Cu  Cu625     1.0  0.45111  0.64370  0.34536  1.0000
  Cu  Cu626     1.0  0.43920  0.30448  0.34381  1.0000
  Cu  Cu627     1.0  0.69140  0.30015  0.34536  1.0000
  Zn  Zn207     1.0  0.60948  0.88259  0.34653  1.0000
  Cu  Cu628     1.0  0.11150  0.97606  0.34686  1.0000
  Cu  Cu629     1.0  0.11587  0.30624  0.34954  1.0000
  Cu  Cu630     1.0  0.86140  0.47302  0.34725  1.0000
  Zn  Zn208     1.0  0.10790  0.05512  0.34706  1.0000
  Cu  Cu631     1.0  0.77986  0.64324  0.34666  1.0000
  Zn  Zn209     1.0  0.44858  0.55542  0.34678  1.0000
  Zn  Zn210     1.0  0.78140  0.22032  0.34844  1.0000
  Cu  Cu632     1.0  0.69484  0.46915  0.34780  1.0000
  Cu  Cu633     1.0  0.52592  0.96957  0.34924  1.0000
  Cu  Cu634     1.0  0.19394  0.97058  0.34850  1.0000
  Zn  Zn211     1.0  0.27957  0.05599  0.35322  1.0000
  Cu  Cu635     1.0  0.86304  0.30511  0.34025  1.0000
  Cu  Cu636     1.0  0.86510  0.72497  0.35119  1.0000
  Zn  Zn212     1.0  0.44564  0.05662  0.35184  1.0000
  Cu  Cu637     1.0  0.36624  0.64205  0.34549  1.0000
  Cu  Cu638     1.0  0.19421  0.05268  0.34686  1.0000
  Cu  Cu639     1.0  0.86279  0.38762  0.35075  1.0000
  Cu  Cu640     1.0  0.77977  0.47330  0.34611  1.0000
  Zn  Zn213     1.0  0.44267  0.72019  0.34840  1.0000
  Cu  Cu641     1.0  0.52707  0.38461  0.34914  1.0000
  Cu  Cu642     1.0  0.60724  0.79645  0.34075  1.0000
  Cu  Cu643     1.0  0.53165  0.72571  0.34866  1.0000
  Cu  Cu644     1.0  0.36834  0.55681  0.34326  1.0000
  Zn  Zn214     1.0  0.61281  0.38954  0.34789  1.0000
  Cu  Cu645     1.0  0.69425  0.38826  0.34163  1.0000
  Zn  Zn215     1.0  0.77725  0.38668  0.35194  1.0000
  Cu  Cu646     1.0  0.20001  0.38926  0.34706  1.0000
  Cu  Cu647     1.0  0.94509  0.97924  0.37297  1.0000
  Zn  Zn216     1.0  0.94810  0.88836  0.38161  1.0000
  Cu  Cu648     1.0  0.85775  0.88896  0.37710  1.0000
  Cu  Cu649     1.0  0.22542  0.69878  0.40397  1.0000
  Cu  Cu650     1.0  0.21962  0.77866  0.39886  1.0000
  Cu  Cu651     1.0  0.97602  0.78631  0.39884  1.0000
  Cu  Cu652     1.0  0.30456  0.78487  0.40551  1.0000
  Cu  Cu653     1.0  0.39434  0.77664  0.40724  1.0000
  Cu  Cu654     1.0  0.89633  0.79083  0.40315  1.0000
  Cu  Cu655     1.0  0.47502  0.44069  0.40953  1.0000
  Cu  Cu656     1.0  0.13667  0.68903  0.40605  1.0000
  Cu  Cu657     1.0  0.80984  0.93482  0.40578  1.0000
  Cu  Cu658     1.0  0.64091  0.02768  0.40454  1.0000
  Zn  Zn217     1.0  0.14241  0.61166  0.40844  1.0000
  Cu  Cu659     1.0  0.05880  0.60924  0.40432  1.0000
  Cu  Cu660     1.0  0.72622  0.02534  0.40551  1.0000
  Cu  Cu661     1.0  0.04375  0.94335  0.40358  1.0000
  Zn  Zn218     1.0  0.55978  0.61663  0.40507  1.0000
  Cu  Cu662     1.0  0.63901  0.94651  0.40004  1.0000
  Cu  Cu663     1.0  0.47099  0.19469  0.40625  1.0000
  Zn  Zn219     1.0  0.72988  0.61023  0.40263  1.0000
  Cu  Cu664     1.0  0.38812  0.19288  0.40456  1.0000
  Zn  Zn220     1.0  0.72729  0.94024  0.40360  1.0000
  Cu  Cu665     1.0  0.46916  0.28058  0.40492  1.0000
  Cu  Cu666     1.0  0.05903  0.69420  0.40373  1.0000
  Cu  Cu667     1.0  0.39370  0.44135  0.40189  1.0000
  Cu  Cu668     1.0  0.96681  0.10260  0.40634  1.0000
  Cu  Cu669     1.0  0.55873  0.11063  0.40647  1.0000
  Cu  Cu670     1.0  0.64260  0.28047  0.40405  1.0000
  Cu  Cu671     1.0  0.30587  0.60899  0.40584  1.0000
  Zn  Zn221     1.0  0.97508  0.27577  0.40602  1.0000
  Cu  Cu672     1.0  0.63995  0.69314  0.40757  1.0000
  Cu  Cu673     1.0  0.72528  0.10759  0.40322  1.0000
  Cu  Cu674     1.0  0.64203  0.19528  0.40377  1.0000
  Cu  Cu675     1.0  0.13732  0.78004  0.40461  1.0000
  Cu  Cu676     1.0  0.05578  0.86134  0.40547  1.0000
  Cu  Cu677     1.0  0.89194  0.02101  0.40454  1.0000
  Cu  Cu678     1.0  0.22721  0.44485  0.40688  1.0000
  Cu  Cu679     1.0  0.72482  0.85591  0.40460  1.0000
  Cu  Cu680     1.0  0.55477  0.27968  0.39834  1.0000
  Cu  Cu681     1.0  0.14145  0.10744  0.40379  1.0000
  Cu  Cu682     1.0  0.97452  0.69612  0.40676  1.0000
  Cu  Cu683     1.0  0.64330  0.11351  0.40697  1.0000
  Cu  Cu684     1.0  0.89272  0.61269  0.40314  1.0000
  Cu  Cu685     1.0  0.30617  0.52418  0.40394  1.0000
  Cu  Cu686     1.0  0.04135  0.02231  0.40182  1.0000
  Cu  Cu687     1.0  0.05864  0.52494  0.40312  1.0000
  Cu  Cu688     1.0  0.22639  0.61309  0.40490  1.0000
  Cu  Cu689     1.0  0.81099  0.19376  0.40802  1.0000
  Cu  Cu690     1.0  0.47270  0.85847  0.40912  1.0000
  Cu  Cu691     1.0  0.72739  0.52387  0.40372  1.0000
  Cu  Cu692     1.0  0.97618  0.35927  0.40454  1.0000
  Zn  Zn222     1.0  0.81309  0.53320  0.40930  1.0000
  Cu  Cu693     1.0  0.22121  0.86179  0.40223  1.0000
  Cu  Cu694     1.0  0.55635  0.69624  0.40712  1.0000
  Cu  Cu695     1.0  0.22049  0.52545  0.40988  1.0000
  Cu  Cu696     1.0  0.14005  0.18867  0.41009  1.0000
  Cu  Cu697     1.0  0.97435  0.44218  0.40302  1.0000
  Cu  Cu698     1.0  0.89301  0.28129  0.40815  1.0000
  Cu  Cu699     1.0  0.30621  0.27391  0.40929  1.0000
  Cu  Cu700     1.0  0.55603  0.52871  0.40584  1.0000
  Cu  Cu701     1.0  0.89236  0.10722  0.40772  1.0000
  Cu  Cu702     1.0  0.31098  0.36000  0.40402  1.0000
  Cu  Cu703     1.0  0.55525  0.19341  0.40766  1.0000
  Cu  Cu704     1.0  0.72715  0.77938  0.40416  1.0000
  Cu  Cu705     1.0  0.97093  0.52583  0.40247  1.0000
  Cu  Cu706     1.0  0.30638  0.02771  0.41473  1.0000
  Cu  Cu707     1.0  0.81155  0.79288  0.40308  1.0000
  Cu  Cu708     1.0  0.05475  0.78214  0.40188  1.0000
  Cu  Cu709     1.0  0.30579  0.86594  0.40656  1.0000
  Cu  Cu710     1.0  0.30695  0.69751  0.40411  1.0000
  Zn  Zn223     1.0  0.38849  0.11101  0.40722  1.0000
  Cu  Cu711     1.0  0.14105  0.44369  0.40827  1.0000
  Cu  Cu712     1.0  0.56245  0.02887  0.40886  1.0000
  Cu  Cu713     1.0  0.04958  0.10308  0.40340  1.0000
  Cu  Cu714     1.0  0.72241  0.69736  0.40842  1.0000
  Cu  Cu715     1.0  0.63823  0.77587  0.40329  1.0000
  Cu  Cu716     1.0  0.38793  0.85884  0.40784  1.0000
  Cu  Cu717     1.0  0.89909  0.70112  0.40864  1.0000
  Cu  Cu718     1.0  0.89038  0.19125  0.41121  1.0000
  Cu  Cu719     1.0  0.72745  0.19685  0.40480  1.0000
  Cu  Cu720     1.0  0.14042  0.27335  0.40926  1.0000
  Cu  Cu721     1.0  0.64322  0.52923  0.40424  1.0000
  Cu  Cu722     1.0  0.30878  0.43975  0.40684  1.0000
  Cu  Cu723     1.0  0.30399  0.10911  0.41354  1.0000
  Cu  Cu724     1.0  0.47420  0.61141  0.40382  1.0000
  Cu  Cu725     1.0  0.80860  0.11204  0.40623  1.0000
  Cu  Cu726     1.0  0.30545  0.94909  0.40909  1.0000
  Cu  Cu727     1.0  0.22216  0.27668  0.40467  1.0000
  Cu  Cu728     1.0  0.38982  0.35843  0.40924  1.0000
  Cu  Cu729     1.0  0.55743  0.44783  0.40325  1.0000
  Cu  Cu730     1.0  0.22339  0.19328  0.40806  1.0000
  Cu  Cu731     1.0  0.06068  0.27251  0.40874  1.0000
  Cu  Cu732     1.0  0.55513  0.85924  0.40676  1.0000
  Zn  Zn224     1.0  0.05470  0.18833  0.40553  1.0000
  Cu  Cu733     1.0  0.80649  0.44528  0.41021  1.0000
  Cu  Cu734     1.0  0.21706  0.02390  0.41157  1.0000
  Cu  Cu735     1.0  0.14009  0.85982  0.40479  1.0000
  Cu  Cu736     1.0  0.13349  0.94472  0.40402  1.0000
  Cu  Cu737     1.0  0.97319  0.19115  0.40601  1.0000
  Cu  Cu738     1.0  0.81061  0.27913  0.40326  1.0000
  Cu  Cu739     1.0  0.06075  0.35831  0.40513  1.0000
  Cu  Cu740     1.0  0.72097  0.43805  0.41091  1.0000
  Cu  Cu741     1.0  0.64012  0.44646  0.40556  1.0000
  Cu  Cu742     1.0  0.22272  0.35971  0.40861  1.0000
  Cu  Cu743     1.0  0.82016  0.61942  0.41339  1.0000
  Cu  Cu744     1.0  0.47159  0.11142  0.40948  1.0000
  Zn  Zn225     1.0  0.38234  0.94289  0.40398  1.0000
  Cu  Cu745     1.0  0.63959  0.85592  0.40005  1.0000
  Cu  Cu746     1.0  0.89528  0.36217  0.40539  1.0000
  Cu  Cu747     1.0  0.64391  0.61130  0.40363  1.0000
  Zn  Zn226     1.0  0.47596  0.94184  0.41354  1.0000
  Cu  Cu748     1.0  0.97590  0.60859  0.40373  1.0000
  Cu  Cu749     1.0  0.81558  0.02742  0.40712  1.0000
  Zn  Zn227     1.0  0.22286  0.11183  0.40883  1.0000
  Cu  Cu750     1.0  0.38633  0.60780  0.40252  1.0000
  Cu  Cu751     1.0  0.06002  0.44573  0.40589  1.0000
  Cu  Cu752     1.0  0.56364  0.94598  0.40953  1.0000
  Cu  Cu753     1.0  0.39497  0.02578  0.40851  1.0000
  Cu  Cu754     1.0  0.89409  0.53262  0.40605  1.0000
  Cu  Cu755     1.0  0.30581  0.19237  0.40956  1.0000
  Cu  Cu756     1.0  0.14146  0.52720  0.40467  1.0000
  Cu  Cu757     1.0  0.81256  0.36352  0.40602  1.0000
  Cu  Cu758     1.0  0.89356  0.44495  0.40921  1.0000
  Cu  Cu759     1.0  0.81303  0.70098  0.41034  1.0000
  Cu  Cu760     1.0  0.38846  0.69142  0.40941  1.0000
  Cu  Cu761     1.0  0.14383  0.36149  0.40522  1.0000
  Cu  Cu762     1.0  0.72635  0.28053  0.40487  1.0000
  Cu  Cu763     1.0  0.38554  0.27549  0.40977  1.0000
  Cu  Cu764     1.0  0.38842  0.52359  0.40260  1.0000
  Cu  Cu765     1.0  0.47891  0.53318  0.41006  1.0000
  Cu  Cu766     1.0  0.47451  0.77433  0.40883  1.0000
  Cu  Cu767     1.0  0.22099  0.94676  0.40524  1.0000
  Cu  Cu768     1.0  0.47371  0.36073  0.40895  1.0000
  Cu  Cu769     1.0  0.63706  0.35627  0.41249  1.0000
  Cu  Cu770     1.0  0.47141  0.68945  0.40626  1.0000
  Cu  Cu771     1.0  0.48151  0.02688  0.40887  1.0000
  Zn  Zn228     1.0  0.55658  0.77382  0.40355  1.0000
  Zn  Zn229     1.0  0.72257  0.36059  0.42467  1.0000
  Zn  Zn230     1.0  0.55891  0.35751  0.42148  1.0000
  Cu  Cu772     1.0  0.12326  0.02160  0.40751  1.0000
  Cu  Cu773     1.0  0.80342  0.85731  0.44191  1.0000
  Cu  Cu774     1.0  0.88983  0.86070  0.43831  1.0000
  Zn  Zn231     1.0  0.97798  0.95170  0.43778  1.0000
  Cu  Cu775     1.0  0.88772  0.94167  0.43938  1.0000
  Zn  Zn232     1.0  0.98135  0.86528  0.44255  1.0000
  Zn  Zn233     1.0  0.96563  0.03004  0.44108  1.0000
  Cu  Cu776     1.0  0.25074  0.75149  0.46448  1.0000
  Cu  Cu777     1.0  0.67058  0.99948  0.45850  1.0000
  Cu  Cu778     1.0  0.92441  0.76906  0.46240  1.0000
  Cu  Cu779     1.0  0.25539  0.58387  0.47024  1.0000
  Cu  Cu780     1.0  0.16958  0.16148  0.46750  1.0000
  Cu  Cu781     1.0  0.25058  0.50146  0.46683  1.0000
  Cu  Cu782     1.0  0.16843  0.74765  0.46026  1.0000
  Cu  Cu783     1.0  0.33354  0.83169  0.46634  1.0000
  Cu  Cu784     1.0  0.16362  0.66302  0.46262  1.0000
  Cu  Cu785     1.0  0.75535  0.91222  0.46108  1.0000
  Cu  Cu786     1.0  0.75432  0.07823  0.46466  1.0000
  Zn  Zn234     1.0  0.58789  0.25932  0.46850  1.0000
  Cu  Cu787     1.0  0.41937  0.17281  0.46391  1.0000
  Zn  Zn235     1.0  0.50022  0.25545  0.46077  1.0000
  Cu  Cu788     1.0  0.33126  0.75208  0.46388  1.0000
  Cu  Cu789     1.0  0.92509  0.08472  0.46506  1.0000
  Cu  Cu790     1.0  0.67243  0.08604  0.46104  1.0000
  Cu  Cu791     1.0  0.75101  0.17266  0.46458  1.0000
  Cu  Cu792     1.0  0.59128  0.66703  0.46416  1.0000
  Zn  Zn236     1.0  0.42151  0.40988  0.46753  1.0000
  Cu  Cu793     1.0  0.16869  0.50183  0.46615  1.0000
  Cu  Cu794     1.0  0.75766  0.67262  0.46616  1.0000
  Cu  Cu795     1.0  0.33509  0.08525  0.47435  1.0000
  Zn  Zn237     1.0  0.07332  0.91747  0.46344  1.0000
  Cu  Cu796     1.0  0.24491  0.91345  0.46200  1.0000
  Cu  Cu797     1.0  0.16263  0.83083  0.46060  1.0000
  Cu  Cu798     1.0  0.07445  0.07763  0.45717  1.0000
  Cu  Cu799     1.0  0.91274  0.66389  0.46325  1.0000
  Cu  Cu800     1.0  0.83032  0.15641  0.46766  1.0000
  Cu  Cu801     1.0  0.99755  0.74791  0.46237  1.0000
  Cu  Cu802     1.0  0.59187  0.09593  0.47380  1.0000
  Cu  Cu803     1.0  0.24805  0.83169  0.45757  1.0000
  Cu  Cu804     1.0  0.33255  0.58198  0.46487  1.0000
  Cu  Cu805     1.0  0.08207  0.74916  0.46025  1.0000
  Cu  Cu806     1.0  0.50385  0.50325  0.46636  1.0000
  Cu  Cu807     1.0  0.00054  0.49709  0.46041  1.0000
  Cu  Cu808     1.0  0.91947  0.16471  0.47584  1.0000
  Cu  Cu809     1.0  0.07890  0.66670  0.46889  1.0000
  Zn  Zn238     1.0  0.65307  0.41284  0.46330  1.0000
  Cu  Cu810     1.0  0.67871  0.76097  0.46289  1.0000
  Cu  Cu811     1.0  0.50458  0.66368  0.46776  1.0000
  Cu  Cu812     1.0  0.66974  0.66755  0.46247  1.0000
  Cu  Cu813     1.0  0.58828  0.17691  0.46455  1.0000
  Cu  Cu814     1.0  0.50179  0.17050  0.46686  1.0000
  Cu  Cu815     1.0  0.25332  0.41757  0.46657  1.0000
  Cu  Cu816     1.0  0.33530  0.00060  0.46576  1.0000
  Cu  Cu817     1.0  0.76192  0.25639  0.45864  1.0000
  Cu  Cu818     1.0  0.67298  0.17957  0.46431  1.0000
  Cu  Cu819     1.0  0.99837  0.41114  0.46354  1.0000
  Zn  Zn239     1.0  0.76155  0.58424  0.46776  1.0000
  Cu  Cu820     1.0  0.75299  0.99342  0.45939  1.0000
  Cu  Cu821     1.0  0.08025  0.83765  0.46346  1.0000
  Cu  Cu822     1.0  0.58922  0.58321  0.46192  1.0000
  Zn  Zn240     1.0  0.67423  0.26053  0.46461  1.0000
  Cu  Cu823     1.0  0.17224  0.24594  0.46893  1.0000
  Cu  Cu824     1.0  0.84129  0.07357  0.46845  1.0000
  Cu  Cu825     1.0  0.92232  0.50446  0.46584  1.0000
  Zn  Zn241     1.0  0.75062  0.48771  0.47013  1.0000
  Cu  Cu826     1.0  0.67234  0.50235  0.46358  1.0000
  Zn  Zn242     1.0  0.84278  0.99644  0.46551  1.0000
  Cu  Cu827     1.0  0.33738  0.91983  0.46741  1.0000
  Zn  Zn243     1.0  0.33944  0.32802  0.47362  1.0000
  Cu  Cu828     1.0  0.25100  0.32901  0.46128  1.0000
  Cu  Cu829     1.0  0.00315  0.16670  0.46249  1.0000
  Cu  Cu830     1.0  0.66691  0.91603  0.45951  1.0000
  Cu  Cu831     1.0  0.08510  0.41540  0.46477  1.0000
  Zn  Zn244     1.0  0.08660  0.49631  0.47181  1.0000
  Cu  Cu832     1.0  0.33719  0.50064  0.46244  1.0000
  Zn  Zn245     1.0  0.91601  0.58314  0.46710  1.0000
  Cu  Cu833     1.0  0.67664  0.58297  0.46653  1.0000
  Cu  Cu834     1.0  0.67086  0.83482  0.45892  1.0000
  Zn  Zn246     1.0  0.33127  0.41399  0.46959  1.0000
  Cu  Cu835     1.0  0.50089  0.82631  0.46893  1.0000
  Zn  Zn247     1.0  0.58991  0.50313  0.46088  1.0000
  Cu  Cu836     1.0  0.33392  0.66435  0.46180  1.0000
  Zn  Zn248     1.0  0.84563  0.68299  0.47083  1.0000
  Cu  Cu837     1.0  0.24943  0.66688  0.45945  1.0000
  Cu  Cu838     1.0  0.08652  0.24205  0.46538  1.0000
  Cu  Cu839     1.0  0.24399  0.08096  0.46576  1.0000
  Zn  Zn249     1.0  0.58704  0.91245  0.46829  1.0000
  Zn  Zn250     1.0  0.83726  0.49710  0.47191  1.0000
  Cu  Cu840     1.0  0.92022  0.24818  0.46621  1.0000
  Cu  Cu841     1.0  0.99970  0.66743  0.46268  1.0000
  Zn  Zn251     1.0  0.75980  0.76038  0.46681  1.0000
  Cu  Cu842     1.0  0.42229  0.08647  0.46818  1.0000
  Cu  Cu843     1.0  0.25299  0.00368  0.46738  1.0000
  Zn  Zn252     1.0  0.16719  0.32497  0.47247  1.0000
  Zn  Zn253     1.0  0.84604  0.76995  0.46684  1.0000
  Zn  Zn254     1.0  0.25077  0.24036  0.46700  1.0000
  Cu  Cu844     1.0  0.41635  0.66156  0.46246  1.0000
  Cu  Cu845     1.0  0.16238  0.91550  0.46061  1.0000
  Cu  Cu846     1.0  0.00131  0.58355  0.46256  1.0000
  Cu  Cu847     1.0  0.00324  0.33273  0.46696  1.0000
  Cu  Cu848     1.0  0.58961  0.74977  0.46140  1.0000
  Zn  Zn255     1.0  0.16980  0.58545  0.47627  1.0000
  Zn  Zn256     1.0  0.34195  0.17369  0.46777  1.0000
  Zn  Zn257     1.0  0.83457  0.24610  0.47243  1.0000
  Cu  Cu849     1.0  0.50779  0.09278  0.46889  1.0000
  Zn  Zn258     1.0  0.42036  0.58458  0.47084  1.0000
  Zn  Zn259     1.0  0.14864  0.06710  0.47193  1.0000
  Zn  Zn260     1.0  0.91872  0.33331  0.46858  1.0000
  Zn  Zn261     1.0  0.07943  0.15287  0.48157  1.0000
  Zn  Zn262     1.0  0.58369  0.99753  0.47028  1.0000
  Zn  Zn263     1.0  0.41497  0.82818  0.47234  1.0000
  Zn  Zn264     1.0  0.41657  0.74237  0.46683  1.0000
  Zn  Zn265     1.0  0.91274  0.41607  0.46709  1.0000
  Zn  Zn266     1.0  0.16808  0.41640  0.46728  1.0000
  Zn  Zn267     1.0  0.08504  0.33442  0.46689  1.0000
  Zn  Zn268     1.0  0.42246  0.00497  0.47344  1.0000
  Zn  Zn269     1.0  0.08288  0.58009  0.47046  1.0000
  Zn  Zn270     1.0  0.00737  0.24712  0.47248  1.0000
  Zn  Zn271     1.0  0.51220  0.58807  0.48107  1.0000
  Zn  Zn272     1.0  0.50321  0.74789  0.46750  1.0000
  Zn  Zn273     1.0  0.16268  0.99183  0.48283  1.0000
  Zn  Zn274     1.0  0.41775  0.49672  0.46762  1.0000
  Zn  Zn275     1.0  0.58566  0.82701  0.47409  1.0000
  Zn  Zn276     1.0  0.50734  0.00949  0.47905  1.0000
  Zn  Zn277     1.0  0.49806  0.91316  0.47280  1.0000
  Cu  Cu850     1.0  0.74472  0.83980  0.49366  1.0000
  Zn  Zn278     1.0  0.82950  0.91154  0.49433  1.0000
  Zn  Zn279     1.0  0.41590  0.91899  0.47702  1.0000
  Cu  Cu851     1.0  0.22010  0.86165  0.51852  1.0000
  Cu  Cu852     1.0  0.30216  0.94090  0.51981  1.0000
  Zn  Zn280     1.0  0.13747  0.68748  0.51851  1.0000
  Cu  Cu853     1.0  0.78191  0.05262  0.51746  1.0000
  Cu  Cu854     1.0  0.68905  0.88535  0.51428  1.0000
  Cu  Cu855     1.0  0.76829  0.13614  0.51693  1.0000
  Cu  Cu856     1.0  0.30315  0.86085  0.51991  1.0000
  Cu  Cu857     1.0  0.21992  0.77399  0.52077  1.0000
  Cu  Cu858     1.0  0.69107  0.05223  0.51514  1.0000
  Cu  Cu859     1.0  0.22067  0.94283  0.51374  1.0000
  Zn  Zn281     1.0  0.04517  0.77492  0.52101  1.0000
  Cu  Cu860     1.0  0.67943  0.13486  0.51468  1.0000
  Zn  Zn282     1.0  0.65957  0.79046  0.52366  1.0000
  Zn  Zn283     1.0  0.30145  0.68726  0.51607  1.0000
  Cu  Cu861     1.0  0.22185  0.69452  0.52121  1.0000
  Cu  Cu862     1.0  0.70126  0.97005  0.51788  1.0000
  Cu  Cu863     1.0  0.61244  0.96431  0.52230  1.0000
  Zn  Zn284     1.0  0.94511  0.72310  0.51397  1.0000
  Zn  Zn285     1.0  0.78039  0.96914  0.52009  1.0000
  Zn  Zn286     1.0  0.13814  0.86821  0.51757  1.0000
  Zn  Zn287     1.0  0.30441  0.77870  0.52339  1.0000
  Cu  Cu864     1.0  0.59086  0.70535  0.51689  1.0000
  Zn  Zn288     1.0  0.13772  0.77418  0.52171  1.0000
